
Version, 8.1.0;

Timestep, 6;

ShadowCalculation,
	AverageOverDaysInFrequency,        !- Calculation Method
	30,        !- Calculation Frequency
	3000;    !- Maximum Figures in Shadow Overlap Calculation

ProgramControl,
	1; !- Number of Threads AllowedNumber

Building,
	NoeValleyWFM_Geometry.idf, !- Name
	356.17264763262676, !- North Axis {deg}
	City, !- Terrain
	, !- Loads Convergence Tolerance Value
	, !- Temperature Convergence Tolerance Value {deltaC}
	FullInteriorAndExteriorWithReflections, !- Solar Distribution or maybe FullExterior
	25, !- Maximum Number of Warmup Days
	6; !- Minimum Number of Warmup Days

Sizing:Parameters,
	1.35,     !- Heating Sizing Factor
	1.35;     !- Cooling Sizing Factor

Site:Location,
	Sacramento Executive Arpt	USA,
	38.50,    !Latitude
	-121.50,   !Longitude
	-8.0, !Time Zone
	5.0;   !Elevation

 SizingPeriod:DesignDay,
  Sacramento Executive Arpt Ann Htg 99.6% Condns DB,     !- Name
         12,      !- Month
         21,      !- Day of Month
  WinterDesignDay,!- Day Type
       -0.4,      !- Maximum Dry-Bulb Temperature {C}
        0.0,      !- Daily Dry-Bulb Temperature Range {C}
 DefaultMultipliers, !- Dry-Bulb Temperature Range Modifier Type
           ,      !- Dry-Bulb Temperature Range Modifier Schedule Name
    Wetbulb,      !- Humidity Condition Type
       -0.4,      !- Wetbulb at Maximum Dry-Bulb {C}
           ,      !- Humidity Indicating Day Schedule Name
           ,      !- Humidity Ratio at Maximum Dry-Bulb {kgWater/kgDryAir}
           ,      !- Enthalpy at Maximum Dry-Bulb {J/kg}
           ,      !- Daily Wet-Bulb Temperature Range {deltaC}
    101265.,      !- Barometric Pressure {Pa}
        0.9,      !- Wind Speed {m/s} design conditions vs. traditional 6.71 m/s (15 mph)
        320,      !- Wind Direction {Degrees; N=0, S=180}
         No,      !- Rain {Yes/No}
         No,      !- Snow on ground {Yes/No}
         No,      !- Daylight Savings Time Indicator
  ASHRAEClearSky, !- Solar Model Indicator
           ,      !- Beam Solar Day Schedule Name
           ,      !- Diffuse Solar Day Schedule Name
           ,      !- ASHRAE Clear Sky Optical Depth for Beam Irradiance (taub)
           ,      !- ASHRAE Clear Sky Optical Depth for Diffuse Irradiance (taud)
       0.00;      !- Clearness {0.0 to 1.1}

 SizingPeriod:DesignDay,
  Sacramento Executive Arpt Ann Hum_n 99.6% Condns DP=>MCDB,     !- Name
         12,      !- Month
         21,      !- Day of Month
  WinterDesignDay,!- Day Type
       10.8,      !- Maximum Dry-Bulb Temperature {C}
        0.0,      !- Daily Dry-Bulb Temperature Range {C}
 DefaultMultipliers, !- Dry-Bulb Temperature Range Modifier Type
           ,      !- Dry-Bulb Temperature Range Modifier Schedule Name
    Dewpoint,     !- Humidity Condition Type
       -6.4,      !- Dewpoint at Maximum Dry-Bulb {C}
           ,      !- Humidity Indicating Day Schedule Name
           ,      !- Humidity Ratio at Maximum Dry-Bulb {kgWater/kgDryAir}
           ,      !- Enthalpy at Maximum Dry-Bulb {J/kg}
           ,      !- Daily Wet-Bulb Temperature Range {deltaC}
    101265.,      !- Barometric Pressure {Pa}
        0.9,      !- Wind Speed {m/s} design conditions vs. traditional 6.71 m/s (15 mph)
        320,      !- Wind Direction {Degrees; N=0, S=180}
         No,      !- Rain {Yes/No}
         No,      !- Snow on ground {Yes/No}
         No,      !- Daylight Savings Time Indicator
  ASHRAEClearSky, !- Solar Model Indicator
           ,      !- Beam Solar Day Schedule Name
           ,      !- Diffuse Solar Day Schedule Name
           ,      !- ASHRAE Clear Sky Optical Depth for Beam Irradiance (taub)
           ,      !- ASHRAE Clear Sky Optical Depth for Diffuse Irradiance (taud)
       0.00;      !- Clearness {0.0 to 1.1}

 SizingPeriod:DesignDay,
  Sacramento Executive Arpt Ann Htg Wind 99.6% Condns WS=>MCDB,     !- Name
         12,      !- Month
         21,      !- Day of Month
  WinterDesignDay,!- Day Type
       11.7,      !- Maximum Dry-Bulb Temperature {C}
        0.0,      !- Daily Dry-Bulb Temperature Range {C}
 DefaultMultipliers, !- Dry-Bulb Temperature Range Modifier Type
           ,      !- Dry-Bulb Temperature Range Modifier Schedule Name
    Wetbulb,      !- Humidity Condition Type
       11.7,      !- Wetbulb at Maximum Dry-Bulb {C}
           ,      !- Humidity Indicating Day Schedule Name
           ,      !- Humidity Ratio at Maximum Dry-Bulb {kgWater/kgDryAir}
           ,      !- Enthalpy at Maximum Dry-Bulb {J/kg}
           ,      !- Daily Wet-Bulb Temperature Range {deltaC}
    101265.,      !- Barometric Pressure {Pa}
       11.6,      !- Wind Speed {m/s} design conditions vs. traditional 6.71 m/s (15 mph)
        320,      !- Wind Direction {Degrees; N=0, S=180}
         No,      !- Rain {Yes/No}
         No,      !- Snow on ground {Yes/No}
         No,      !- Daylight Savings Time Indicator
  ASHRAEClearSky, !- Solar Model Indicator
           ,      !- Beam Solar Day Schedule Name
           ,      !- Diffuse Solar Day Schedule Name
           ,      !- ASHRAE Clear Sky Optical Depth for Beam Irradiance (taub)
           ,      !- ASHRAE Clear Sky Optical Depth for Diffuse Irradiance (taud)
       0.00;      !- Clearness {0.0 to 1.1}

 SizingPeriod:DesignDay,
  Sacramento Executive Arpt Ann Clg .4% Condns DB=>MWB,     !- Name
          7,      !- Month
         21,      !- Day of Month
  SummerDesignDay,!- Day Type
       37.9,      !- Maximum Dry-Bulb Temperature {C}
       18.1,      !- Daily Dry-Bulb Temperature Range {C}
 DefaultMultipliers, !- Dry-Bulb Temperature Range Modifier Type
           ,      !- Dry-Bulb Temperature Range Modifier Schedule Name
    Wetbulb,      !- Humidity Condition Type
       21.3,      !- Wetbulb at Maximum Dry-Bulb {C}
           ,      !- Humidity Indicating Day Schedule Name
           ,      !- Humidity Ratio at Maximum Dry-Bulb {kgWater/kgDryAir}
           ,      !- Enthalpy at Maximum Dry-Bulb {J/kg}
           ,      !- Daily Wet-Bulb Temperature Range {deltaC}
    101265.,      !- Barometric Pressure {Pa}
        3.4,      !- Wind Speed {m/s} design conditions vs. traditional 3.35 m/s (7mph)
        220,      !- Wind Direction {Degrees; N=0, S=180}
         No,      !- Rain {Yes/No}
         No,      !- Snow on ground {Yes/No}
         No,      !- Daylight Savings Time Indicator
       ASHRAETau, !- Solar Model Indicator
           ,      !- Beam Solar Day Schedule Name
           ,      !- Diffuse Solar Day Schedule Name
      0.382,      !- ASHRAE Clear Sky Optical Depth for Beam Irradiance (taub)
      2.325;      !- ASHRAE Clear Sky Optical Depth for Diffuse Irradiance (taud)

 SizingPeriod:DesignDay,
  Sacramento Executive Arpt Ann Clg .4% Condns WB=>MDB,     !- Name
          7,      !- Month
         21,      !- Day of Month
  SummerDesignDay,!- Day Type
       35.5,      !- Maximum Dry-Bulb Temperature {C}
       18.1,      !- Daily Dry-Bulb Temperature Range {C}
 DefaultMultipliers, !- Dry-Bulb Temperature Range Modifier Type
           ,      !- Dry-Bulb Temperature Range Modifier Schedule Name
    Wetbulb,      !- Humidity Condition Type
       22.6,      !- Wetbulb at Maximum Dry-Bulb {C}
           ,      !- Humidity Indicating Day Schedule Name
           ,      !- Humidity Ratio at Maximum Dry-Bulb {kgWater/kgDryAir}
           ,      !- Enthalpy at Maximum Dry-Bulb {J/kg}
           ,      !- Daily Wet-Bulb Temperature Range {deltaC}
    101265.,      !- Barometric Pressure {Pa}
        3.4,      !- Wind Speed {m/s} design conditions vs. traditional 3.35 m/s (7mph)
        220,      !- Wind Direction {Degrees; N=0, S=180}
         No,      !- Rain {Yes/No}
         No,      !- Snow on ground {Yes/No}
         No,      !- Daylight Savings Time Indicator
       ASHRAETau, !- Solar Model Indicator
           ,      !- Beam Solar Day Schedule Name
           ,      !- Diffuse Solar Day Schedule Name
      0.382,      !- ASHRAE Clear Sky Optical Depth for Beam Irradiance (taub)
      2.325;      !- ASHRAE Clear Sky Optical Depth for Diffuse Irradiance (taud)

 SizingPeriod:DesignDay,
  Sacramento Executive Arpt Ann Clg .4% Condns DP=>MDB,     !- Name
          7,      !- Month
         21,      !- Day of Month
  SummerDesignDay,!- Day Type
       29.1,      !- Maximum Dry-Bulb Temperature {C}
       18.1,      !- Daily Dry-Bulb Temperature Range {C}
 DefaultMultipliers, !- Dry-Bulb Temperature Range Modifier Type
           ,      !- Dry-Bulb Temperature Range Modifier Schedule Name
    Dewpoint,     !- Humidity Condition Type
       17.7,      !- Dewpoint at Maximum Dry-Bulb {C}
           ,      !- Humidity Indicating Day Schedule Name
           ,      !- Humidity Ratio at Maximum Dry-Bulb {kgWater/kgDryAir}
           ,      !- Enthalpy at Maximum Dry-Bulb {J/kg}
           ,      !- Daily Wet-Bulb Temperature Range {deltaC}
    101265.,      !- Barometric Pressure {Pa}
        3.4,      !- Wind Speed {m/s} design conditions vs. traditional 3.35 m/s (7mph)
        220,      !- Wind Direction {Degrees; N=0, S=180}
         No,      !- Rain {Yes/No}
         No,      !- Snow on ground {Yes/No}
         No,      !- Daylight Savings Time Indicator
       ASHRAETau, !- Solar Model Indicator
           ,      !- Beam Solar Day Schedule Name
           ,      !- Diffuse Solar Day Schedule Name
      0.382,      !- ASHRAE Clear Sky Optical Depth for Beam Irradiance (taub)
      2.325;      !- ASHRAE Clear Sky Optical Depth for Diffuse Irradiance (taud)

 SizingPeriod:DesignDay,
  Sacramento Executive Arpt Ann Clg .4% Condns Enth=>MDB,     !- Name
          7,      !- Month
         21,      !- Day of Month
  SummerDesignDay,!- Day Type
       35.4,      !- Maximum Dry-Bulb Temperature {C}
       18.1,      !- Daily Dry-Bulb Temperature Range {C}
 DefaultMultipliers, !- Dry-Bulb Temperature Range Modifier Type
           ,      !- Dry-Bulb Temperature Range Modifier Schedule Name
   Enthalpy,      !- Humidity Condition Type
           ,      !- Wetbulb or Dewpoint at Maximum Dry-Bulb
           ,      !- Humidity Indicating Day Schedule Name
           ,      !- Humidity Ratio at Maximum Dry-Bulb {kgWater/kgDryAir}
    66200.0,      !- Enthalpy at Maximum Dry-Bulb {J/kg}
           ,      !- Daily Wet-Bulb Temperature Range {deltaC}
    101265.,      !- Barometric Pressure {Pa}
        3.4,      !- Wind Speed {m/s} design conditions vs. traditional 3.35 m/s (7mph)
        220,      !- Wind Direction {Degrees; N=0, S=180}
         No,      !- Rain {Yes/No}
         No,      !- Snow on ground {Yes/No}
         No,      !- Daylight Savings Time Indicator
       ASHRAETau, !- Solar Model Indicator
           ,      !- Beam Solar Day Schedule Name
           ,      !- Diffuse Solar Day Schedule Name
      0.382,      !- ASHRAE Clear Sky Optical Depth for Beam Irradiance (taub)
      2.325;      !- ASHRAE Clear Sky Optical Depth for Diffuse Irradiance (taud)


SimulationControl,
	Yes,    !- Do Zone Sizing Calculation
	Yes,  !- Do System Sizing Calculation
	Yes,   !- Do Plant Sizing Calculation
	No,  !- Run Simulation for Sizing Periods
	Yes; !- Run Simulation for Weather File Run Periods

RunPeriod,
	customRun,    !- Name
	1,   !- Begin Month
	1,    !- Begin Day of Month
	1, !- End Month
	1,   !- End Day of Month
	UseWeatherFile,   !- Day of Week for Start Day
	Yes,              !- Use Weather File Holidays and Special Days
	Yes,              !- Use Weather File Daylight Saving Period
	No,               !- Apply Weekend Holiday Rule
	Yes,              !- Use Weather File Rain Indicators
	Yes;              !- Use Weather File Snow Indicators
ScheduleTypeLimits,
  TEMPERATURE 30,   !- name
  ,   !- - Lower Limit Value {BasedOnField A3}
  ,   !- - Upper Limit Value {BasedOnField A3}
  Continuous,   !- - Numeric Type
  temperature;   !- 

ScheduleTypeLimits,
  ANY NUMBER;   !- name

ScheduleTypeLimits,
  TEMPERATURE 40,   !- name
  ,   !- - Lower Limit Value {BasedOnField A3}
  ,   !- - Upper Limit Value {BasedOnField A3}
  Continuous,   !- - Numeric Type
  temperature;   !- 

ScheduleTypeLimits,
  TEMPERATURE 50,   !- name
  ,   !- - Lower Limit Value {BasedOnField A3}
  ,   !- - Upper Limit Value {BasedOnField A3}
  Continuous,   !- - Numeric Type
  temperature;   !- 

ScheduleTypeLimits,
  TEMPERATURE 8,   !- name
  ,   !- - Lower Limit Value {BasedOnField A3}
  ,   !- - Upper Limit Value {BasedOnField A3}
  Continuous,   !- - Numeric Type
  temperature;   !- 

ScheduleTypeLimits,
  TEMPERATURE 60,   !- name
  ,   !- - Lower Limit Value {BasedOnField A3}
  ,   !- - Upper Limit Value {BasedOnField A3}
  Continuous,   !- - Numeric Type
  temperature;   !- 

ScheduleTypeLimits,
  TEMPERATURE 9,   !- name
  ,   !- - Lower Limit Value {BasedOnField A3}
  ,   !- - Upper Limit Value {BasedOnField A3}
  Continuous,   !- - Numeric Type
  temperature;   !- 

ScheduleTypeLimits,
  TEMPERATURE 19,   !- name
  ,   !- - Lower Limit Value {BasedOnField A3}
  ,   !- - Upper Limit Value {BasedOnField A3}
  Continuous,   !- - Numeric Type
  temperature;   !- 

ScheduleTypeLimits,
  TEMPERATURE 29,   !- name
  ,   !- - Lower Limit Value {BasedOnField A3}
  ,   !- - Upper Limit Value {BasedOnField A3}
  Continuous,   !- - Numeric Type
  temperature;   !- 

ScheduleTypeLimits,
  TEMPERATURE 39,   !- name
  ,   !- - Lower Limit Value {BasedOnField A3}
  ,   !- - Upper Limit Value {BasedOnField A3}
  Continuous,   !- - Numeric Type
  temperature;   !- 

ScheduleTypeLimits,
  TEMPERATURE 1,   !- name
  ,   !- - Lower Limit Value {BasedOnField A3}
  ,   !- - Upper Limit Value {BasedOnField A3}
  Continuous,   !- - Numeric Type
  temperature;   !- 

ScheduleTypeLimits,
  TEMPERATURE 2,   !- name
  ,   !- - Lower Limit Value {BasedOnField A3}
  ,   !- - Upper Limit Value {BasedOnField A3}
  Continuous,   !- - Numeric Type
  temperature;   !- 

ScheduleTypeLimits,
  TEMPERATURE 3,   !- name
  ,   !- - Lower Limit Value {BasedOnField A3}
  ,   !- - Upper Limit Value {BasedOnField A3}
  Continuous,   !- - Numeric Type
  temperature;   !- 

ScheduleTypeLimits,
  TEMPERATURE 4,   !- name
  ,   !- - Lower Limit Value {BasedOnField A3}
  ,   !- - Upper Limit Value {BasedOnField A3}
  Continuous,   !- - Numeric Type
  temperature;   !- 

ScheduleTypeLimits,
  TEMPERATURE 5,   !- name
  ,   !- - Lower Limit Value {BasedOnField A3}
  ,   !- - Upper Limit Value {BasedOnField A3}
  Continuous,   !- - Numeric Type
  temperature;   !- 

ScheduleTypeLimits,
  TEMPERATURE 6,   !- name
  ,   !- - Lower Limit Value {BasedOnField A3}
  ,   !- - Upper Limit Value {BasedOnField A3}
  Continuous,   !- - Numeric Type
  temperature;   !- 

ScheduleTypeLimits,
  CONTROL TYPE,   !- name
  0,   !- - Lower Limit Value {BasedOnField A3}
  4,   !- - Upper Limit Value {BasedOnField A3}
  DISCRETE;   !- 

ScheduleTypeLimits,
  TEMPERATURE 7,   !- name
  ,   !- - Lower Limit Value {BasedOnField A3}
  ,   !- - Upper Limit Value {BasedOnField A3}
  Continuous,   !- - Numeric Type
  temperature;   !- 

ScheduleTypeLimits,
  TEMPERATURE 49,   !- name
  ,   !- - Lower Limit Value {BasedOnField A3}
  ,   !- - Upper Limit Value {BasedOnField A3}
  Continuous,   !- - Numeric Type
  temperature;   !- 

ScheduleTypeLimits,
  TEMPERATURE 59,   !- name
  ,   !- - Lower Limit Value {BasedOnField A3}
  ,   !- - Upper Limit Value {BasedOnField A3}
  Continuous,   !- - Numeric Type
  temperature;   !- 

ScheduleTypeLimits,
  ACTIVITYLEVEL 14,   !- name
  0,   !- - Lower Limit Value {BasedOnField A3}
  ,   !- - Upper Limit Value {BasedOnField A3}
  Continuous,   !- - Numeric Type
  activitylevel;   !- 

ScheduleTypeLimits,
  TEMPERATURE 17,   !- name
  ,   !- - Lower Limit Value {BasedOnField A3}
  ,   !- - Upper Limit Value {BasedOnField A3}
  Continuous,   !- - Numeric Type
  temperature;   !- 

ScheduleTypeLimits,
  TEMPERATURE 27,   !- name
  ,   !- - Lower Limit Value {BasedOnField A3}
  ,   !- - Upper Limit Value {BasedOnField A3}
  Continuous,   !- - Numeric Type
  temperature;   !- 

ScheduleTypeLimits,
  TEMPERATURE 37,   !- name
  ,   !- - Lower Limit Value {BasedOnField A3}
  ,   !- - Upper Limit Value {BasedOnField A3}
  Continuous,   !- - Numeric Type
  temperature;   !- 

ScheduleTypeLimits,
  TEMPERATURE 47,   !- name
  ,   !- - Lower Limit Value {BasedOnField A3}
  ,   !- - Upper Limit Value {BasedOnField A3}
  Continuous,   !- - Numeric Type
  temperature;   !- 

ScheduleTypeLimits,
  TEMPERATURE 57,   !- name
  ,   !- - Lower Limit Value {BasedOnField A3}
  ,   !- - Upper Limit Value {BasedOnField A3}
  Continuous,   !- - Numeric Type
  temperature;   !- 

ScheduleTypeLimits,
  ALWAYS ON DISCRETE LIMITS,   !- name
  0,   !- - Lower Limit Value {BasedOnField A3}
  1,   !- - Upper Limit Value {BasedOnField A3}
  Discrete,   !- - Numeric Type
  availability;   !- 

ScheduleTypeLimits,
  ACTIVITYLEVEL 10,   !- name
  0,   !- - Lower Limit Value {BasedOnField A3}
  ,   !- - Upper Limit Value {BasedOnField A3}
  Continuous,   !- - Numeric Type
  activitylevel;   !- 

ScheduleTypeLimits,
  TEMPERATURE 18,   !- name
  ,   !- - Lower Limit Value {BasedOnField A3}
  ,   !- - Upper Limit Value {BasedOnField A3}
  Continuous,   !- - Numeric Type
  temperature;   !- 

ScheduleTypeLimits,
  TEMPERATURE 28,   !- name
  ,   !- - Lower Limit Value {BasedOnField A3}
  ,   !- - Upper Limit Value {BasedOnField A3}
  Continuous,   !- - Numeric Type
  temperature;   !- 

ScheduleTypeLimits,
  ACTIVITYLEVEL 15,   !- name
  0,   !- - Lower Limit Value {BasedOnField A3}
  ,   !- - Upper Limit Value {BasedOnField A3}
  Continuous,   !- - Numeric Type
  activitylevel;   !- 

ScheduleTypeLimits,
  TEMPERATURE 38,   !- name
  ,   !- - Lower Limit Value {BasedOnField A3}
  ,   !- - Upper Limit Value {BasedOnField A3}
  Continuous,   !- - Numeric Type
  temperature;   !- 

ScheduleTypeLimits,
  TEMPERATURE 48,   !- name
  ,   !- - Lower Limit Value {BasedOnField A3}
  ,   !- - Upper Limit Value {BasedOnField A3}
  Continuous,   !- - Numeric Type
  temperature;   !- 

ScheduleTypeLimits,
  TEMPERATURE 58,   !- name
  ,   !- - Lower Limit Value {BasedOnField A3}
  ,   !- - Upper Limit Value {BasedOnField A3}
  Continuous,   !- - Numeric Type
  temperature;   !- 

ScheduleTypeLimits,
  TEMPERATURE 13,   !- name
  ,   !- - Lower Limit Value {BasedOnField A3}
  ,   !- - Upper Limit Value {BasedOnField A3}
  Continuous,   !- - Numeric Type
  temperature;   !- 

ScheduleTypeLimits,
  TEMPERATURE 23,   !- name
  ,   !- - Lower Limit Value {BasedOnField A3}
  ,   !- - Upper Limit Value {BasedOnField A3}
  Continuous,   !- - Numeric Type
  temperature;   !- 

ScheduleTypeLimits,
  TEMPERATURE 33,   !- name
  ,   !- - Lower Limit Value {BasedOnField A3}
  ,   !- - Upper Limit Value {BasedOnField A3}
  Continuous,   !- - Numeric Type
  temperature;   !- 

ScheduleTypeLimits,
  TEMPERATURE 43,   !- name
  ,   !- - Lower Limit Value {BasedOnField A3}
  ,   !- - Upper Limit Value {BasedOnField A3}
  Continuous,   !- - Numeric Type
  temperature;   !- 

ScheduleTypeLimits,
  TEMPERATURE 53,   !- name
  ,   !- - Lower Limit Value {BasedOnField A3}
  ,   !- - Upper Limit Value {BasedOnField A3}
  Continuous,   !- - Numeric Type
  temperature;   !- 

ScheduleTypeLimits,
  TEMPERATURE 16,   !- name
  ,   !- - Lower Limit Value {BasedOnField A3}
  ,   !- - Upper Limit Value {BasedOnField A3}
  Continuous,   !- - Numeric Type
  temperature;   !- 

ScheduleTypeLimits,
  TEMPERATURE 26,   !- name
  ,   !- - Lower Limit Value {BasedOnField A3}
  ,   !- - Upper Limit Value {BasedOnField A3}
  Continuous,   !- - Numeric Type
  temperature;   !- 

ScheduleTypeLimits,
  TEMPERATURE 36,   !- name
  ,   !- - Lower Limit Value {BasedOnField A3}
  ,   !- - Upper Limit Value {BasedOnField A3}
  Continuous,   !- - Numeric Type
  temperature;   !- 

ScheduleTypeLimits,
  TEMPERATURE 46,   !- name
  ,   !- - Lower Limit Value {BasedOnField A3}
  ,   !- - Upper Limit Value {BasedOnField A3}
  Continuous,   !- - Numeric Type
  temperature;   !- 

ScheduleTypeLimits,
  TEMPERATURE 56,   !- name
  ,   !- - Lower Limit Value {BasedOnField A3}
  ,   !- - Upper Limit Value {BasedOnField A3}
  Continuous,   !- - Numeric Type
  temperature;   !- 

ScheduleTypeLimits,
  FRACTION,   !- name
  0,   !- - Lower Limit Value {BasedOnField A3}
  1,   !- - Upper Limit Value {BasedOnField A3}
  CONTINUOUS;   !- 

ScheduleTypeLimits,
  ACTIVITYLEVEL 11,   !- name
  0,   !- - Lower Limit Value {BasedOnField A3}
  ,   !- - Upper Limit Value {BasedOnField A3}
  Continuous,   !- - Numeric Type
  activitylevel;   !- 

ScheduleTypeLimits,
  TEMPERATURE 12,   !- name
  ,   !- - Lower Limit Value {BasedOnField A3}
  ,   !- - Upper Limit Value {BasedOnField A3}
  Continuous,   !- - Numeric Type
  temperature;   !- 

ScheduleTypeLimits,
  TEMPERATURE 22,   !- name
  ,   !- - Lower Limit Value {BasedOnField A3}
  ,   !- - Upper Limit Value {BasedOnField A3}
  Continuous,   !- - Numeric Type
  temperature;   !- 

ScheduleTypeLimits,
  TEMPERATURE 32,   !- name
  ,   !- - Lower Limit Value {BasedOnField A3}
  ,   !- - Upper Limit Value {BasedOnField A3}
  Continuous,   !- - Numeric Type
  temperature;   !- 

ScheduleTypeLimits,
  TEMPERATURE 42,   !- name
  ,   !- - Lower Limit Value {BasedOnField A3}
  ,   !- - Upper Limit Value {BasedOnField A3}
  Continuous,   !- - Numeric Type
  temperature;   !- 

ScheduleTypeLimits,
  TEMPERATURE 52,   !- name
  ,   !- - Lower Limit Value {BasedOnField A3}
  ,   !- - Upper Limit Value {BasedOnField A3}
  Continuous,   !- - Numeric Type
  temperature;   !- 

ScheduleTypeLimits,
  TEMPERATURE 15,   !- name
  ,   !- - Lower Limit Value {BasedOnField A3}
  ,   !- - Upper Limit Value {BasedOnField A3}
  Continuous,   !- - Numeric Type
  temperature;   !- 

ScheduleTypeLimits,
  TEMPERATURE 25,   !- name
  ,   !- - Lower Limit Value {BasedOnField A3}
  ,   !- - Upper Limit Value {BasedOnField A3}
  Continuous,   !- - Numeric Type
  temperature;   !- 

ScheduleTypeLimits,
  TEMPERATURE 35,   !- name
  ,   !- - Lower Limit Value {BasedOnField A3}
  ,   !- - Upper Limit Value {BasedOnField A3}
  Continuous,   !- - Numeric Type
  temperature;   !- 

ScheduleTypeLimits,
  TEMPERATURE 45,   !- name
  ,   !- - Lower Limit Value {BasedOnField A3}
  ,   !- - Upper Limit Value {BasedOnField A3}
  Continuous,   !- - Numeric Type
  temperature;   !- 

ScheduleTypeLimits,
  TEMPERATURE 55,   !- name
  ,   !- - Lower Limit Value {BasedOnField A3}
  ,   !- - Upper Limit Value {BasedOnField A3}
  Continuous,   !- - Numeric Type
  temperature;   !- 

ScheduleTypeLimits,
  ACTIVITYLEVEL 12,   !- name
  0,   !- - Lower Limit Value {BasedOnField A3}
  ,   !- - Upper Limit Value {BasedOnField A3}
  Continuous,   !- - Numeric Type
  activitylevel;   !- 

ScheduleTypeLimits,
  TEMPERATURE 11,   !- name
  ,   !- - Lower Limit Value {BasedOnField A3}
  ,   !- - Upper Limit Value {BasedOnField A3}
  Continuous,   !- - Numeric Type
  temperature;   !- 

ScheduleTypeLimits,
  TEMPERATURE 21,   !- name
  ,   !- - Lower Limit Value {BasedOnField A3}
  ,   !- - Upper Limit Value {BasedOnField A3}
  Continuous,   !- - Numeric Type
  temperature;   !- 

ScheduleTypeLimits,
  TEMPERATURE 31,   !- name
  ,   !- - Lower Limit Value {BasedOnField A3}
  ,   !- - Upper Limit Value {BasedOnField A3}
  Continuous,   !- - Numeric Type
  temperature;   !- 

ScheduleTypeLimits,
  TEMPERATURE 41,   !- name
  ,   !- - Lower Limit Value {BasedOnField A3}
  ,   !- - Upper Limit Value {BasedOnField A3}
  Continuous,   !- - Numeric Type
  temperature;   !- 

ScheduleTypeLimits,
  TEMPERATURE 51,   !- name
  ,   !- - Lower Limit Value {BasedOnField A3}
  ,   !- - Upper Limit Value {BasedOnField A3}
  Continuous,   !- - Numeric Type
  temperature;   !- 

ScheduleTypeLimits,
  TEMPERATURE 61,   !- name
  ,   !- - Lower Limit Value {BasedOnField A3}
  ,   !- - Upper Limit Value {BasedOnField A3}
  Continuous,   !- - Numeric Type
  temperature;   !- 

ScheduleTypeLimits,
  TEMPERATURE 14,   !- name
  ,   !- - Lower Limit Value {BasedOnField A3}
  ,   !- - Upper Limit Value {BasedOnField A3}
  Continuous,   !- - Numeric Type
  temperature;   !- 

ScheduleTypeLimits,
  TEMPERATURE 24,   !- name
  ,   !- - Lower Limit Value {BasedOnField A3}
  ,   !- - Upper Limit Value {BasedOnField A3}
  Continuous,   !- - Numeric Type
  temperature;   !- 

ScheduleTypeLimits,
  TEMPERATURE 34,   !- name
  ,   !- - Lower Limit Value {BasedOnField A3}
  ,   !- - Upper Limit Value {BasedOnField A3}
  Continuous,   !- - Numeric Type
  temperature;   !- 

ScheduleTypeLimits,
  TEMPERATURE 44,   !- name
  ,   !- - Lower Limit Value {BasedOnField A3}
  ,   !- - Upper Limit Value {BasedOnField A3}
  Continuous,   !- - Numeric Type
  temperature;   !- 

ScheduleTypeLimits,
  TEMPERATURE 54,   !- name
  ,   !- - Lower Limit Value {BasedOnField A3}
  ,   !- - Upper Limit Value {BasedOnField A3}
  Continuous,   !- - Numeric Type
  temperature;   !- 

ScheduleTypeLimits,
  ON/OFF,   !- name
  0,   !- - Lower Limit Value {BasedOnField A3}
  1,   !- - Upper Limit Value {BasedOnField A3}
  DISCRETE;   !- 

ScheduleTypeLimits,
  ACTIVITYLEVEL 4,   !- name
  0,   !- - Lower Limit Value {BasedOnField A3}
  ,   !- - Upper Limit Value {BasedOnField A3}
  Continuous,   !- - Numeric Type
  activitylevel;   !- 

ScheduleTypeLimits,
  ACTIVITYLEVEL 5,   !- name
  0,   !- - Lower Limit Value {BasedOnField A3}
  ,   !- - Upper Limit Value {BasedOnField A3}
  Continuous,   !- - Numeric Type
  activitylevel;   !- 

ScheduleTypeLimits,
  ACTIVITYLEVEL 13,   !- name
  0,   !- - Lower Limit Value {BasedOnField A3}
  ,   !- - Upper Limit Value {BasedOnField A3}
  Continuous,   !- - Numeric Type
  activitylevel;   !- 

ScheduleTypeLimits,
  ACTIVITYLEVEL 6,   !- name
  0,   !- - Lower Limit Value {BasedOnField A3}
  ,   !- - Upper Limit Value {BasedOnField A3}
  Continuous,   !- - Numeric Type
  activitylevel;   !- 

ScheduleTypeLimits,
  ACTIVITYLEVEL 7,   !- name
  0,   !- - Lower Limit Value {BasedOnField A3}
  ,   !- - Upper Limit Value {BasedOnField A3}
  Continuous,   !- - Numeric Type
  activitylevel;   !- 

ScheduleTypeLimits,
  ACTIVITYLEVEL 1,   !- name
  0,   !- - Lower Limit Value {BasedOnField A3}
  ,   !- - Upper Limit Value {BasedOnField A3}
  Continuous,   !- - Numeric Type
  activitylevel;   !- 

ScheduleTypeLimits,
  ACTIVITYLEVEL 2,   !- name
  0,   !- - Lower Limit Value {BasedOnField A3}
  ,   !- - Upper Limit Value {BasedOnField A3}
  Continuous,   !- - Numeric Type
  activitylevel;   !- 

ScheduleTypeLimits,
  ACTIVITYLEVEL 3,   !- name
  0,   !- - Lower Limit Value {BasedOnField A3}
  ,   !- - Upper Limit Value {BasedOnField A3}
  Continuous,   !- - Numeric Type
  activitylevel;   !- 

ScheduleTypeLimits,
  ACTIVITYLEVEL 8,   !- name
  0,   !- - Lower Limit Value {BasedOnField A3}
  ,   !- - Upper Limit Value {BasedOnField A3}
  Continuous,   !- - Numeric Type
  activitylevel;   !- 

ScheduleTypeLimits,
  ACTIVITYLEVEL 9,   !- name
  0,   !- - Lower Limit Value {BasedOnField A3}
  ,   !- - Upper Limit Value {BasedOnField A3}
  Continuous,   !- - Numeric Type
  activitylevel;   !- 

ScheduleTypeLimits,
  FRACTIONAL,   !- name
  0,   !- - Lower Limit Value {BasedOnField A3}
  1,   !- - Upper Limit Value {BasedOnField A3}
  Continuous;   !- 

ScheduleTypeLimits,
  TEMPERATURE,   !- name
  -60,   !- - Lower Limit Value {BasedOnField A3}
  200,   !- - Upper Limit Value {BasedOnField A3}
  CONTINUOUS;   !- 

ScheduleTypeLimits,
  TEMPERATURE 10,   !- name
  ,   !- - Lower Limit Value {BasedOnField A3}
  ,   !- - Upper Limit Value {BasedOnField A3}
  Continuous,   !- - Numeric Type
  temperature;   !- 

ScheduleTypeLimits,
  TEMPERATURE 20,   !- name
  ,   !- - Lower Limit Value {BasedOnField A3}
  ,   !- - Upper Limit Value {BasedOnField A3}
  Continuous,   !- - Numeric Type
  temperature;   !- 

ScheduleTypeLimits,
  ACTIVITYLEVEL,   !- name
  0,   !- - Lower Limit Value {BasedOnField A3}
  ,   !- - Upper Limit Value {BasedOnField A3}
  Continuous,   !- - Numeric Type
  activitylevel;   !- 


GlobalGeometryRules,
	LowerLeftCorner,         !- Starting Vertex Position
	CounterClockWise,        !- Vertex Entry Direction
	Relative,                !- Coordinate System
	Relative,                !- Daylighting Ref Point Coordinate System
	Relative;                !- Rectangular Surface Coordinate System

Zone,
	L1-123-Stairs,
	0,	!-Direction of Relative North {deg}
	0.0,	!- X Origin {m}
	0.0,	!- Y Origin {m}
	0.0,	!- Z Origin {m}
	1;	!- Type

BuildingSurface:Detailed,
	L1-123-Stairs_Srf_0,	!- Name
	FLOOR,	!- Surface Type
	Interior Floor,	!- Construction Name
	L1-123-Stairs,	!- Zone Name
	ground,	!- Outside Boundary Condition
	,	!- Outside Boundary Condition Object
	NoSun,	!- Sun Exposure
	NoWind,	!- Wind Exposure
	autocalculate,	!- View Factor to Ground
	6,	!- Number of Vertices
	76.565757751464844,
	49.865280151367188,
	0.0,
	76.565757751464844,
	51.443603515625,
	0.0,
	78.333602905273437,
	51.443603515625,
	0.0,
	78.333602905273437,
	58.338718414306641,
	0.0,
	79.674720764160156,
	58.338718414306641,
	0.0,
	79.674720764160156,
	49.865280151367188,
	0.0;


BuildingSurface:Detailed,
	L1-123-Stairs_Srf_1,	!- Name
	WALL,	!- Surface Type
	Interior Wall,	!- Construction Name
	L1-123-Stairs,	!- Zone Name
	SURFACE,	!- Outside Boundary Condition
	L1-122-Corridor_Srf_6,	!- Outside Boundary Condition Object
	NoSun,	!- Sun Exposure
	NoWind,	!- Wind Exposure
	autocalculate,	!- View Factor to Ground
	4,	!- Number of Vertices
	78.333602905273437,
	58.338718414306641,
	0.0,
	78.333602905273437,
	51.443603515625,
	0.0,
	78.333602905273437,
	51.443603515625,
	2.1335999965667725,
	78.333602905273437,
	58.338718414306641,
	2.1335999965667725;


BuildingSurface:Detailed,
	L1-123-Stairs_Srf_2,	!- Name
	WALL,	!- Surface Type
	Interior Wall,	!- Construction Name
	L1-123-Stairs,	!- Zone Name
	SURFACE,	!- Outside Boundary Condition
	L1-122-Corridor_Srf_5,	!- Outside Boundary Condition Object
	NoSun,	!- Sun Exposure
	NoWind,	!- Wind Exposure
	autocalculate,	!- View Factor to Ground