!-Generator IDFEditor 1.48
!-Option SortedOrder UseSpecialFormat ViewInIPunits

!-NOTE: All comments with '!-' are ignored by the IDFEditor and are generated automatically.
!-      Use '!' comments if they need to be retained when using the IDFEditor.


!-   ===========  ALL OBJECTS IN CLASS: VERSION ===========

Version,8.6;

!-   ===========  ALL OBJECTS IN CLASS: SIMULATIONCONTROL ===========


SimulationControl,
    No,                      !- Do Zone Sizing Calculation
    No,                      !- Do System Sizing Calculation
    No,                      !- Do Plant Sizing Calculation
    No,                      !- Run Simulation for Sizing Periods
    Yes,                     !- Run Simulation for Weather File Run Periods
    No,                      !- Do HVAC Sizing Simulation for Sizing Periods
    1;                       !- Maximum Number of HVAC Sizing Simulation Passes


!-   ===========  ALL OBJECTS IN CLASS: BUILDING ===========

Building,
    NoeValleyWFM.idf,        !- Name
    356.172647632627,        !- North Axis {deg}
    City,                    !- Terrain
    ,                        !- Loads Convergence Tolerance Value
    ,                        !- Temperature Convergence Tolerance Value {deltaC}
    FullInteriorAndExteriorWithReflections,  !- Solar Distribution
    25,                      !- Maximum Number of Warmup Days
    6;                       !- Minimum Number of Warmup Days


!-   ===========  ALL OBJECTS IN CLASS: SHADOWCALCULATION ===========

ShadowCalculation,
    AverageOverDaysInFrequency,  !- Calculation Method
    30,                      !- Calculation Frequency
    3000;                    !- Maximum Figures in Shadow Overlap Calculations


!-   ===========  ALL OBJECTS IN CLASS: SURFACECONVECTIONALGORITHM:INSIDE ===========

SurfaceConvectionAlgorithm:Inside,TARP;

!-   ===========  ALL OBJECTS IN CLASS: SURFACECONVECTIONALGORITHM:OUTSIDE ===========

SurfaceConvectionAlgorithm:Outside,TARP;

!-   ===========  ALL OBJECTS IN CLASS: HEATBALANCEALGORITHM ===========

HeatBalanceAlgorithm,ConductionTransferFunction,200,0.1,1000;

!-   ===========  ALL OBJECTS IN CLASS: TIMESTEP ===========

Timestep,6;

!-   ===========  ALL OBJECTS IN CLASS: SITE:LOCATION ===========


Site:Location,
    1E1ABA,                  !- Name
    0.0,                     !- Latitude {deg}
    0.0,                     !- Longitude {deg}
    0.0,                     !- Time Zone {hr}
    0.0;                     !- Elevation {m}


!-   ===========  ALL OBJECTS IN CLASS: RUNPERIOD ===========

RunPeriod,
    Simulation,              !- Name
    1,                       !- Begin Month
    1,                       !- Begin Day of Month
    1,                       !- End Month
    2,                       !- End Day of Month
    Thursday,                !- Day of Week for Start Day
    Yes,                     !- Use Weather File Holidays and Special Days
    Yes,                     !- Use Weather File Daylight Saving Period
    Yes,                     !- Apply Weekend Holiday Rule
    Yes,                     !- Use Weather File Rain Indicators
    Yes,                     !- Use Weather File Snow Indicators
    1;                       !- Number of Times Runperiod to be Repeated


!-   ===========  ALL OBJECTS IN CLASS: SCHEDULETYPELIMITS ===========

ScheduleTypeLimits,
    Any Number;              !- Name

ScheduleTypeLimits,
    Fraction,                !- Name
    0.0,                     !- Lower Limit Value
    1.0,                     !- Upper Limit Value
    CONTINUOUS;              !- Numeric Type

ScheduleTypeLimits,
    Temperature,             !- Name
    -140,                    !- Lower Limit Value
    300,                     !- Upper Limit Value
    CONTINUOUS;              !- Numeric Type

ScheduleTypeLimits,
    On/Off,                  !- Name
    0,                       !- Lower Limit Value
    1,                       !- Upper Limit Value
    DISCRETE;                !- Numeric Type

ScheduleTypeLimits,
    Control Type,            !- Name
    0,                       !- Lower Limit Value
    4,                       !- Upper Limit Value
    DISCRETE;                !- Numeric Type

ScheduleTypeLimits,
    Humidity,                !- Name
    0,                       !- Lower Limit Value
    100,                     !- Upper Limit Value
    CONTINUOUS;              !- Numeric Type


!-   ===========  ALL OBJECTS IN CLASS: SCHEDULE:COMPACT ===========

Schedule:Compact,
    ALWAYS_ON,               !- Name
    On/Off,                  !- Schedule Type Limits Name
    Through: 12/31,          !- Field 1
    For: AllDays,            !- Field 2
    Until: 24:00, 1;         !- Field 4

Schedule:Compact,
    ALWAYS_OFF,              !- Name
    On/Off,                  !- Schedule Type Limits Name
    Through: 12/31,          !- Field 1
    For: AllDays,            !- Field 2
    Until: 24:00, 0;         !- Field 4

Schedule:Compact,
    CLOTHING_SCH,            !- Name
    Any Number,              !- Schedule Type Limits Name
    Through: 04/30,          !- Field 1
    For: AllDays,            !- Field 2
    Until: 24:00, 1.0,       !- Field 4
    Through: 09/30,          !- Field 5
    For: AllDays,            !- Field 6
    Until: 24:00, 0.5,       !- Field 8
    Through: 12/31,          !- Field 9
    For: AllDays,            !- Field 10
    Until: 24:00, 1.0;       !- Field 12

Schedule:Compact,
    ACTIVITY_SCH,            !- Name
    Any Number,              !- Schedule Type Limits Name
    Through: 12/31,          !- Field 1
    For: AllDays,            !- Field 2
    Until: 24:00, 120.;      !- Field 4

Schedule:Compact,
    AIR_VELO_SCH,            !- Name
    Any Number,              !- Schedule Type Limits Name
    Through: 12/31,          !- Field 1
    For: AllDays,            !- Field 2
    Until: 24:00, 0.2;       !- Field 4

Schedule:Compact,
    Occupancy_Sales,         !- Name
    Fraction,                !- Schedule Type Limits Name
    Through: 12/31,          !- Field 1
    For: Weekdays,           !- Field 2
    Until: 06:00, 0.0,       !- Field 4
    Until: 08:00, 0.1,       !- Field 6
    Until: 09:00, 0.2,       !- Field 8
    Until: 11:00, 0.5,       !- Field 10
    Until: 15:00, 0.7,       !- Field 12
    Until: 16:00, 0.8,       !- Field 14
    Until: 17:00, 0.7,       !- Field 16
    Until: 19:00, 0.5,       !- Field 18
    Until: 22:00, 0.3,       !- Field 20
    Until: 24:00, 0.0,       !- Field 22
    For: SummerDesignDay,    !- Field 23
    Until: 24:00, 1.0,       !- Field 25
    For: Saturday,           !- Field 26
    Until: 06:00, 0.0,       !- Field 28
    Until: 08:00, 0.1,       !- Field 30
    Until: 09:00, 0.2,       !- Field 32
    Until: 10:00, 0.5,       !- Field 34
    Until: 11:00, 0.6,       !- Field 36
    Until: 17:00, 0.8,       !- Field 38
    Until: 18:00, 0.6,       !- Field 40
    Until: 21:00, 0.2,       !- Field 42
    Until: 22:00, 0.1,       !- Field 44
    Until: 24:00, 0.0,       !- Field 46
    For: WinterDesignDay,    !- Field 47
    Until: 24:00, 0.0,       !- Field 49
    For: Sunday Holidays AllOtherDays,  !- Field 50
    Until: 06:00, 0.0,       !- Field 52
    Until: 10:00, 0.1,       !- Field 54
    Until: 12:00, 0.2,       !- Field 56
    Until: 17:00, 0.4,       !- Field 58
    Until: 18:00, 0.2,       !- Field 60
    Until: 22:00, 0.1,       !- Field 62
    Until: 24:00, 0.0;       !- Field 64

Schedule:Compact,
    Occupancy_Checkout,      !- Name
    Fraction,                !- Schedule Type Limits Name
    Through: 12/31,          !- Field 1
    For: Weekdays,           !- Field 2
    Until: 06:00, 0.0,       !- Field 4
    Until: 08:00, 0.1,       !- Field 6
    Until: 09:00, 0.2,       !- Field 8
    Until: 11:00, 0.5,       !- Field 10
    Until: 15:00, 0.7,       !- Field 12
    Until: 16:00, 0.8,       !- Field 14
    Until: 17:00, 0.7,       !- Field 16
    Until: 19:00, 0.5,       !- Field 18
    Until: 22:00, 0.3,       !- Field 20
    Until: 24:00, 0.0,       !- Field 22
    For: SummerDesignDay,    !- Field 23
    Until: 24:00, 1.0,       !- Field 25
    For: Saturday,           !- Field 26
    Until: 06:00, 0.0,       !- Field 28
    Until: 08:00, 0.1,       !- Field 30
    Until: 09:00, 0.2,       !- Field 32
    Until: 10:00, 0.5,       !- Field 34
    Until: 11:00, 0.6,       !- Field 36
    Until: 17:00, 0.8,       !- Field 38
    Until: 18:00, 0.6,       !- Field 40
    Until: 21:00, 0.2,       !- Field 42
    Until: 22:00, 0.1,       !- Field 44
    Until: 24:00, 0.0,       !- Field 46
    For: WinterDesignDay,    !- Field 47
    Until: 24:00, 0.0,       !- Field 49
    For: Sunday Holidays AllOtherDays,  !- Field 50
    Until: 06:00, 0.0,       !- Field 52
    Until: 10:00, 0.1,       !- Field 54
    Until: 12:00, 0.2,       !- Field 56
    Until: 17:00, 0.4,       !- Field 58
    Until: 18:00, 0.2,       !- Field 60
    Until: 22:00, 0.1,       !- Field 62
    Until: 24:00, 0.0;       !- Field 64

Schedule:Compact,
    Occupancy_Office,        !- Name
    Fraction,                !- Schedule Type Limits Name
    Through: 12/31,          !- Field 1
    For: Weekdays,           !- Field 2
    Until: 06:00, 0.0,       !- Field 4
    Until: 08:00, 0.1,       !- Field 6
    Until: 09:00, 0.2,       !- Field 8
    Until: 11:00, 0.5,       !- Field 10
    Until: 15:00, 0.7,       !- Field 12
    Until: 16:00, 0.8,       !- Field 14
    Until: 17:00, 0.7,       !- Field 16
    Until: 19:00, 0.5,       !- Field 18
    Until: 22:00, 0.3,       !- Field 20
    Until: 24:00, 0.0,       !- Field 22
    For: SummerDesignDay,    !- Field 23
    Until: 24:00, 1.0,       !- Field 25
    For: Saturday,           !- Field 26
    Until: 06:00, 0.0,       !- Field 28
    Until: 08:00, 0.1,       !- Field 30
    Until: 09:00, 0.2,       !- Field 32
    Until: 10:00, 0.5,       !- Field 34
    Until: 11:00, 0.6,       !- Field 36
    Until: 17:00, 0.8,       !- Field 38
    Until: 18:00, 0.6,       !- Field 40
    Until: 21:00, 0.2,       !- Field 42
    Until: 22:00, 0.1,       !- Field 44
    Until: 24:00, 0.0,       !- Field 46
    For: WinterDesignDay,    !- Field 47
    Until: 24:00, 0.0,       !- Field 49
    For: Sunday Holidays AllOtherDays,  !- Field 50
    Until: 06:00, 0.0,       !- Field 52
    Until: 10:00, 0.1,       !- Field 54
    Until: 12:00, 0.2,       !- Field 56
    Until: 17:00, 0.4,       !- Field 58
    Until: 18:00, 0.2,       !- Field 60
    Until: 22:00, 0.1,       !- Field 62
    Until: 24:00, 0.0;       !- Field 64

Schedule:Compact,
    Occupancy_BOH,           !- Name
    Fraction,                !- Schedule Type Limits Name
    Through: 12/31,          !- Field 1
    For: Weekdays,           !- Field 2
    Until: 06:00, 0.0,       !- Field 4
    Until: 08:00, 0.1,       !- Field 6
    Until: 09:00, 0.2,       !- Field 8
    Until: 11:00, 0.5,       !- Field 10
    Until: 15:00, 0.7,       !- Field 12
    Until: 16:00, 0.8,       !- Field 14
    Until: 17:00, 0.7,       !- Field 16
    Until: 19:00, 0.5,       !- Field 18
    Until: 22:00, 0.3,       !- Field 20
    Until: 24:00, 0.0,       !- Field 22
    For: SummerDesignDay,    !- Field 23
    Until: 24:00, 1.0,       !- Field 25
    For: Saturday,           !- Field 26
    Until: 06:00, 0.0,       !- Field 28
    Until: 08:00, 0.1,       !- Field 30
    Until: 09:00, 0.2,       !- Field 32
    Until: 10:00, 0.5,       !- Field 34
    Until: 11:00, 0.6,       !- Field 36
    Until: 17:00, 0.8,       !- Field 38
    Until: 18:00, 0.6,       !- Field 40
    Until: 21:00, 0.2,       !- Field 42
    Until: 22:00, 0.1,       !- Field 44
    Until: 24:00, 0.0,       !- Field 46
    For: WinterDesignDay,    !- Field 47
    Until: 24:00, 0.0,       !- Field 49
    For: Sunday Holidays AllOtherDays,  !- Field 50
    Until: 06:00, 0.0,       !- Field 52
    Until: 10:00, 0.1,       !- Field 54
    Until: 12:00, 0.2,       !- Field 56
    Until: 17:00, 0.4,       !- Field 58
    Until: 18:00, 0.2,       !- Field 60
    Until: 22:00, 0.1,       !- Field 62
    Until: 24:00, 0.0;       !- Field 64

Schedule:Compact,
    Equipment_Cashier,       !- Name
    Fraction,                !- Schedule Type Limits Name
    Through: 12/31,          !- Field 1
    For: Weekdays,           !- Field 2
    Until: 06:00, 0.2,       !- Field 4
    Until: 08:00, 0.4,       !- Field 6
    Until: 09:00, 0.7,       !- Field 8
    Until: 18:00, 0.9,       !- Field 10
    Until: 20:00, 0.8,       !- Field 12
    Until: 21:00, 0.7,       !- Field 14
    Until: 22:00, 0.4,       !- Field 16
    Until: 24:00, 0.2,       !- Field 18
    For: Saturday,           !- Field 19
    Until: 06:00, 0.15,      !- Field 21
    Until: 08:00, 0.3,       !- Field 23
    Until: 09:00, 0.5,       !- Field 25
    Until: 10:00, 0.8,       !- Field 27
    Until: 18:00, 0.9,       !- Field 29
    Until: 19:00, 0.7,       !- Field 31
    Until: 21:00, 0.5,       !- Field 33
    Until: 22:00, 0.3,       !- Field 35
    Until: 24:00, 0.15,      !- Field 37
    For: SummerDesignDay,    !- Field 38
    Until: 24:00, 1.0,       !- Field 40
    For: WinterDesignDay,    !- Field 41
    Until: 24:00, 0.0,       !- Field 43
    For: Sunday Holidays AllOtherDays,  !- Field 44
    Until: 06:00, 0.15,      !- Field 46
    Until: 10:00, 0.3,       !- Field 48
    Until: 12:00, 0.6,       !- Field 50
    Until: 17:00, 0.8,       !- Field 52
    Until: 18:00, 0.6,       !- Field 54
    Until: 22:00, 0.4,       !- Field 56
    Until: 24:00, 0.15;      !- Field 58

Schedule:Compact,
    Equipment_Misc1,         !- Name
    Fraction,                !- Schedule Type Limits Name
    Through: 12/31,          !- Field 1
    For: Weekdays,           !- Field 2
    Until: 06:00, 0.2,       !- Field 4
    Until: 08:00, 0.4,       !- Field 6
    Until: 09:00, 0.7,       !- Field 8
    Until: 18:00, 0.9,       !- Field 10
    Until: 20:00, 0.8,       !- Field 12
    Until: 21:00, 0.7,       !- Field 14
    Until: 22:00, 0.4,       !- Field 16
    Until: 24:00, 0.2,       !- Field 18
    For: Saturday,           !- Field 19
    Until: 06:00, 0.15,      !- Field 21
    Until: 08:00, 0.3,       !- Field 23
    Until: 09:00, 0.5,       !- Field 25
    Until: 10:00, 0.8,       !- Field 27
    Until: 18:00, 0.9,       !- Field 29
    Until: 19:00, 0.7,       !- Field 31
    Until: 21:00, 0.5,       !- Field 33
    Until: 22:00, 0.3,       !- Field 35
    Until: 24:00, 0.15,      !- Field 37
    For: SummerDesignDay,    !- Field 38
    Until: 24:00, 1.0,       !- Field 40
    For: WinterDesignDay,    !- Field 41
    Until: 24:00, 0.0,       !- Field 43
    For: Sunday Holidays AllOtherDays,  !- Field 44
    Until: 06:00, 0.15,      !- Field 46
    Until: 10:00, 0.3,       !- Field 48
    Until: 12:00, 0.6,       !- Field 50
    Until: 17:00, 0.8,       !- Field 52
    Until: 18:00, 0.6,       !- Field 54
    Until: 22:00, 0.4,       !- Field 56
    Until: 24:00, 0.15;      !- Field 58

Schedule:Compact,
    Equipment_Misc2,         !- Name
    Fraction,                !- Schedule Type Limits Name
    Through: 12/31,          !- Field 1
    For: Weekdays,           !- Field 2
    Until: 06:00, 0.2,       !- Field 4
    Until: 08:00, 0.4,       !- Field 6
    Until: 09:00, 0.7,       !- Field 8
    Until: 18:00, 0.9,       !- Field 10
    Until: 20:00, 0.8,       !- Field 12
    Until: 21:00, 0.7,       !- Field 14
    Until: 22:00, 0.4,       !- Field 16
    Until: 24:00, 0.2,       !- Field 18
    For: Saturday,           !- Field 19
    Until: 06:00, 0.15,      !- Field 21
    Until: 08:00, 0.3,       !- Field 23
    Until: 09:00, 0.5,       !- Field 25
    Until: 10:00, 0.8,       !- Field 27
    Until: 18:00, 0.9,       !- Field 29
    Until: 19:00, 0.7,       !- Field 31
    Until: 21:00, 0.5,       !- Field 33
    Until: 22:00, 0.3,       !- Field 35
    Until: 24:00, 0.15,      !- Field 37
    For: SummerDesignDay,    !- Field 38
    Until: 24:00, 1.0,       !- Field 40
    For: WinterDesignDay,    !- Field 41
    Until: 24:00, 0.0,       !- Field 43
    For: Sunday Holidays AllOtherDays,  !- Field 44
    Until: 06:00, 0.15,      !- Field 46
    Until: 10:00, 0.3,       !- Field 48
    Until: 12:00, 0.6,       !- Field 50
    Until: 17:00, 0.8,       !- Field 52
    Until: 18:00, 0.6,       !- Field 54
    Until: 22:00, 0.4,       !- Field 56
    Until: 24:00, 0.15;      !- Field 58

Schedule:Compact,
    Equipment_Misc3,         !- Name
    Fraction,                !- Schedule Type Limits Name
    Through: 12/31,          !- Field 1
    For: Weekdays,           !- Field 2
    Until: 06:00, 0.2,       !- Field 4
    Until: 08:00, 0.4,       !- Field 6
    Until: 09:00, 0.7,       !- Field 8
    Until: 18:00, 0.9,       !- Field 10
    Until: 20:00, 0.8,       !- Field 12
    Until: 21:00, 0.7,       !- Field 14
    Until: 22:00, 0.4,       !- Field 16
    Until: 24:00, 0.2,       !- Field 18
    For: Saturday,           !- Field 19
    Until: 06:00, 0.15,      !- Field 21
    Until: 08:00, 0.3,       !- Field 23
    Until: 09:00, 0.5,       !- Field 25
    Until: 10:00, 0.8,       !- Field 27
    Until: 18:00, 0.9,       !- Field 29
    Until: 19:00, 0.7,       !- Field 31
    Until: 21:00, 0.5,       !- Field 33
    Until: 22:00, 0.3,       !- Field 35
    Until: 24:00, 0.15,      !- Field 37
    For: SummerDesignDay,    !- Field 38
    Until: 24:00, 1.0,       !- Field 40
    For: WinterDesignDay,    !- Field 41
    Until: 24:00, 0.0,       !- Field 43
    For: Sunday Holidays AllOtherDays,  !- Field 44
    Until: 06:00, 0.15,      !- Field 46
    Until: 10:00, 0.3,       !- Field 48
    Until: 12:00, 0.6,       !- Field 50
    Until: 17:00, 0.8,       !- Field 52
    Until: 18:00, 0.6,       !- Field 54
    Until: 22:00, 0.4,       !- Field 56
    Until: 24:00, 0.15;      !- Field 58

Schedule:Compact,
    Equipment_Office,        !- Name
    Fraction,                !- Schedule Type Limits Name
    Through: 12/31,          !- Field 1
    For: Weekdays,           !- Field 2
    Until: 06:00, 0.2,       !- Field 4
    Until: 08:00, 0.4,       !- Field 6
    Until: 09:00, 0.7,       !- Field 8
    Until: 18:00, 0.9,       !- Field 10
    Until: 20:00, 0.8,       !- Field 12
    Until: 21:00, 0.7,       !- Field 14
    Until: 22:00, 0.4,       !- Field 16
    Until: 24:00, 0.2,       !- Field 18
    For: Saturday,           !- Field 19
    Until: 06:00, 0.15,      !- Field 21
    Until: 08:00, 0.3,       !- Field 23
    Until: 09:00, 0.5,       !- Field 25
    Until: 10:00, 0.8,       !- Field 27
    Until: 18:00, 0.9,       !- Field 29
    Until: 19:00, 0.7,       !- Field 31
    Until: 21:00, 0.5,       !- Field 33
    Until: 22:00, 0.3,       !- Field 35
    Until: 24:00, 0.15,      !- Field 37
    For: SummerDesignDay,    !- Field 38
    Until: 24:00, 1.0,       !- Field 40
    For: WinterDesignDay,    !- Field 41
    Until: 24:00, 0.0,       !- Field 43
    For: Sunday Holidays AllOtherDays,  !- Field 44
    Until: 06:00, 0.15,      !- Field 46
    Until: 10:00, 0.3,       !- Field 48
    Until: 12:00, 0.6,       !- Field 50
    Until: 17:00, 0.8,       !- Field 52
    Until: 18:00, 0.6,       !- Field 54
    Until: 22:00, 0.4,       !- Field 56
    Until: 24:00, 0.15;      !- Field 58

Schedule:Compact,
    Lighting_Outdoor,        !- Name
    Fraction,                !- Schedule Type Limits Name
    Through: 12/31,          !- Field 1
    For: Weekdays,           !- Field 2
    Until: 06:00, 0.05,      !- Field 4
    Until: 08:00, 0.2,       !- Field 6
    Until: 09:00, 0.5,       !- Field 8
    Until: 18:00, 0.9,       !- Field 10
    Until: 20:00, 0.6,       !- Field 12
    Until: 21:00, 0.5,       !- Field 14
    Until: 22:00, 0.2,       !- Field 16
    Until: 24:00, 0.05,      !- Field 18
    For: Saturday,           !- Field 19
    Until: 06:00, 0.05,      !- Field 21
    Until: 08:00, 0.1,       !- Field 23
    Until: 09:00, 0.3,       !- Field 25
    Until: 10:00, 0.6,       !- Field 27
    Until: 18:00, 0.9,       !- Field 29
    Until: 19:00, 0.5,       !- Field 31
    Until: 21:00, 0.3,       !- Field 33
    Until: 22:00, 0.1,       !- Field 35
    Until: 24:00, 0.05,      !- Field 37
    For: SummerDesignDay,    !- Field 38
    Until: 24:00, 1.0,       !- Field 40
    For: WinterDesignDay,    !- Field 41
    Until: 24:00, 0.0,       !- Field 43
    For: Sunday Holidays AllOtherDays,  !- Field 44
    Until: 06:00, 0.05,      !- Field 46
    Until: 10:00, 0.1,       !- Field 48
    Until: 12:00, 0.4,       !- Field 50
    Until: 17:00, 0.6,       !- Field 52
    Until: 18:00, 0.4,       !- Field 54
    Until: 22:00, 0.2,       !- Field 56
    Until: 24:00, 0.05;      !- Field 58

Schedule:Compact,
    Lighting_Ambient,        !- Name
    Fraction,                !- Schedule Type Limits Name
    Through: 12/31,          !- Field 1
    For: Weekdays,           !- Field 2
    Until: 06:00, 0.05,      !- Field 4
    Until: 08:00, 0.2,       !- Field 6
    Until: 09:00, 0.5,       !- Field 8
    Until: 18:00, 0.9,       !- Field 10
    Until: 20:00, 0.6,       !- Field 12
    Until: 21:00, 0.5,       !- Field 14
    Until: 22:00, 0.2,       !- Field 16
    Until: 24:00, 0.05,      !- Field 18
    For: Saturday,           !- Field 19
    Until: 06:00, 0.05,      !- Field 21
    Until: 08:00, 0.1,       !- Field 23
    Until: 09:00, 0.3,       !- Field 25
    Until: 10:00, 0.6,       !- Field 27
    Until: 18:00, 0.9,       !- Field 29
    Until: 19:00, 0.5,       !- Field 31
    Until: 21:00, 0.3,       !- Field 33
    Until: 22:00, 0.1,       !- Field 35
    Until: 24:00, 0.05,      !- Field 37
    For: SummerDesignDay,    !- Field 38
    Until: 24:00, 1.0,       !- Field 40
    For: WinterDesignDay,    !- Field 41
    Until: 24:00, 0.0,       !- Field 43
    For: Sunday Holidays AllOtherDays,  !- Field 44
    Until: 06:00, 0.05,      !- Field 46
    Until: 10:00, 0.1,       !- Field 48
    Until: 12:00, 0.4,       !- Field 50
    Until: 17:00, 0.6,       !- Field 52
    Until: 18:00, 0.4,       !- Field 54
    Until: 22:00, 0.2,       !- Field 56
    Until: 24:00, 0.05;      !- Field 58

Schedule:Compact,
    Lighting_Task,           !- Name
    Fraction,                !- Schedule Type Limits Name
    Through: 12/31,          !- Field 1
    For: Weekdays,           !- Field 2
    Until: 06:00, 0.05,      !- Field 4
    Until: 08:00, 0.2,       !- Field 6
    Until: 09:00, 0.5,       !- Field 8
    Until: 18:00, 0.9,       !- Field 10
    Until: 20:00, 0.6,       !- Field 12
    Until: 21:00, 0.5,       !- Field 14
    Until: 22:00, 0.2,       !- Field 16
    Until: 24:00, 0.05,      !- Field 18
    For: Saturday,           !- Field 19
    Until: 06:00, 0.05,      !- Field 21
    Until: 08:00, 0.1,       !- Field 23
    Until: 09:00, 0.3,       !- Field 25
    Until: 10:00, 0.6,       !- Field 27
    Until: 18:00, 0.9,       !- Field 29
    Until: 19:00, 0.5,       !- Field 31
    Until: 21:00, 0.3,       !- Field 33
    Until: 22:00, 0.1,       !- Field 35
    Until: 24:00, 0.05,      !- Field 37
    For: SummerDesignDay,    !- Field 38
    Until: 24:00, 1.0,       !- Field 40
    For: WinterDesignDay,    !- Field 41
    Until: 24:00, 0.0,       !- Field 43
    For: Sunday Holidays AllOtherDays,  !- Field 44
    Until: 06:00, 0.05,      !- Field 46
    Until: 10:00, 0.1,       !- Field 48
    Until: 12:00, 0.4,       !- Field 50
    Until: 17:00, 0.6,       !- Field 52
    Until: 18:00, 0.4,       !- Field 54
    Until: 22:00, 0.2,       !- Field 56
    Until: 24:00, 0.05;      !- Field 58

Schedule:Compact,
    Lighting_BOH,            !- Name
    Fraction,                !- Schedule Type Limits Name
    Through: 12/31,          !- Field 1
    For: Weekdays,           !- Field 2
    Until: 06:00, 0.05,      !- Field 4
    Until: 08:00, 0.2,       !- Field 6
    Until: 09:00, 0.5,       !- Field 8
    Until: 18:00, 0.9,       !- Field 10
    Until: 20:00, 0.6,       !- Field 12
    Until: 21:00, 0.5,       !- Field 14
    Until: 22:00, 0.2,       !- Field 16
    Until: 24:00, 0.05,      !- Field 18
    For: Saturday,           !- Field 19
    Until: 06:00, 0.05,      !- Field 21
    Until: 08:00, 0.1,       !- Field 23
    Until: 09:00, 0.3,       !- Field 25
    Until: 10:00, 0.6,       !- Field 27
    Until: 18:00, 0.9,       !- Field 29
    Until: 19:00, 0.5,       !- Field 31
    Until: 21:00, 0.3,       !- Field 33
    Until: 22:00, 0.1,       !- Field 35
    Until: 24:00, 0.05,      !- Field 37
    For: SummerDesignDay,    !- Field 38
    Until: 24:00, 1.0,       !- Field 40
    For: WinterDesignDay,    !- Field 41
    Until: 24:00, 0.0,       !- Field 43
    For: Sunday Holidays AllOtherDays,  !- Field 44
    Until: 06:00, 0.05,      !- Field 46
    Until: 10:00, 0.1,       !- Field 48
    Until: 12:00, 0.4,       !- Field 50
    Until: 17:00, 0.6,       !- Field 52
    Until: 18:00, 0.4,       !- Field 54
    Until: 22:00, 0.2,       !- Field 56
    Until: 24:00, 0.05;      !- Field 58

Schedule:Compact,
    WORK_EFF_SCH,            !- Name
    Fraction,                !- Schedule Type Limits Name
    Through: 12/31,          !- Field 1
    For: AllDays,            !- Field 2
    Until: 24:00, 0.0;       !- Field 4


!-   ===========  ALL OBJECTS IN CLASS: MATERIAL ===========

Material,
    ConcreteSlab 8in,        !- Name
    MediumSmooth,            !- Roughness
    0.2032,                  !- Thickness {m}
    1.3997494,               !- Conductivity {W/m-K}
    2100.00320369065,        !- Density {kg/m3}
    836.800000000001,        !- Specific Heat {J/kg-K}
    0.9,                     !- Thermal Absorptance
    0.7,                     !- Solar Absorptance
    0.7;                     !- Visible Absorptance

Material,
    G01a 19mm gypsum board,  !- Name
    MediumSmooth,            !- Roughness
    0.019,                   !- Thickness {m}
    0.16,                    !- Conductivity {W/m-K}
    800,                     !- Density {kg/m3}
    1090;                    !- Specific Heat {J/kg-K}

Material,
    M05 200mm concrete block,!- Name
    MediumRough,             !- Roughness
    0.2032,                  !- Thickness {m}
    1.11,                    !- Conductivity {W/m-K}
    800,                     !- Density {kg/m3}
    920;                     !- Specific Heat {J/kg-K}

Material,
    Composite 2x6 Wood Stud R19 #1,  !- Name
    Smooth,                  !- Roughness
    0.019,                   !- Thickness {m}
    0.137,                   !- Conductivity {W/m-K}
    640.0,                   !- Density {kg/m3}
    1006,                    !- Specific Heat {J/kg-K}
    0.9,                     !- Thermal Absorptance
    0.7,                     !- Solar Absorptance
    0.7;                     !- Visible Absorptance

Material,
    Composite 2x6 Wood Stud R19 #2,  !- Name
    Smooth,                  !- Roughness
    0.133,                   !- Thickness {m}
    0.047,                   !- Conductivity {W/m-K}
    93.84,                   !- Density {kg/m3}
    1006,                    !- Specific Heat {J/kg-K}
    0.9,                     !- Thermal Absorptance
    0.7,                     !- Solar Absorptance
    0.7;                     !- Visible Absorptance

Material,
    Composite 2x6 Wood Stud R19 #3,  !- Name
    Smooth,                  !- Roughness
    0.025,                   !- Thickness {m}
    0.246,                   !- Conductivity {W/m-K}
    492.67,                  !- Density {kg/m3}
    1006,                    !- Specific Heat {J/kg-K}
    0.9,                     !- Thermal Absorptance
    0.7,                     !- Solar Absorptance
    0.7;                     !- Visible Absorptance

Material,
    Insulation: Cellular glass - 75mm,  !- Name
    MediumRough,             !- Roughness
    0.075,                   !- Thickness {m}
    0.05,                    !- Conductivity {W/m-K}
    136,                     !- Density {kg/m3}
    750;                     !- Specific Heat {J/kg-K}

Material,
    Plywood (Douglas Fir) - 12.7mm,  !- Name
    Smooth,                  !- Roughness
    0.0127,                  !- Thickness {m}
    0.12,                    !- Conductivity {W/m-K}
    540,                     !- Density {kg/m3}
    1210;                    !- Specific Heat {J/kg-K}

Material,
    F14 Slate or tile,       !- Name
    VeryRough,               !- Roughness
    0.0127,                  !- Thickness {m}
    1.59,                    !- Conductivity {W/m-K}
    1920,                    !- Density {kg/m3}
    1260;                    !- Specific Heat {J/kg-K}


!-   ===========  ALL OBJECTS IN CLASS: MATERIAL:NOMASS ===========

Material:NoMass,
    Vaporseal - plastic film,!- Name
    Rough,                   !- Roughness
    0.002;                   !- Thermal Resistance {m2-K/W}

Material:NoMass,
    Air,                     !- Name
    VeryRough,               !- Roughness
    1.58499174835685E-03,    !- Thermal Resistance {m2-K/W}
    0.001,                   !- Thermal Absorptance
    0.001,                   !- Solar Absorptance
    0.001;                   !- Visible Absorptance


!-   ===========  ALL OBJECTS IN CLASS: MATERIAL:AIRGAP ===========

Material:AirGap,
    F04 Wall air space resistance,  !- Name
    0.15;                    !- Thermal Resistance {m2-K/W}

Material:AirGap,
    F05 Ceiling air space resistance,  !- Name
    0.18;                    !- Thermal Resistance {m2-K/W}


!-   ===========  ALL OBJECTS IN CLASS: WINDOWMATERIAL:SIMPLEGLAZINGSYSTEM ===========

WindowMaterial:SimpleGlazingSystem,
    ExistingGlass,           !- Name
    1.1356526,               !- U-Factor {W/m2-K}
    0.4,                     !- Solar Heat Gain Coefficient
    0.7;                     !- Visible Transmittance


!-   ===========  ALL OBJECTS IN CLASS: WINDOWMATERIAL:GLAZING ===========

WindowMaterial:Glazing,
    Glass_Existing,          !- Name
    SpectralAverage,         !- Optical Data Type