!-Generator IDFEditor 1.48
!-Option SortedOrder UseSpecialFormat ViewInIPunits

!-NOTE: All comments with '!-' are ignored by the IDFEditor and are generated automatically.
!-      Use '!' comments if they need to be retained when using the IDFEditor.


!-   ===========  ALL OBJECTS IN CLASS: VERSION ===========

Version,8.6;

!-   ===========  ALL OBJECTS IN CLASS: SIMULATIONCONTROL ===========


SimulationControl,
    No,                      !- Do Zone Sizing Calculation
    No,                      !- Do System Sizing Calculation
    No,                      !- Do Plant Sizing Calculation
    No,                      !- Run Simulation for Sizing Periods
    Yes,                     !- Run Simulation for Weather File Run Periods
    No,                      !- Do HVAC Sizing Simulation for Sizing Periods
    1;                       !- Maximum Number of HVAC Sizing Simulation Passes


!-   ===========  ALL OBJECTS IN CLASS: BUILDING ===========

Building,
    NoeValleyWFM,            !- Name
    356.172647632627,        !- North Axis {deg}
    City,                    !- Terrain
    ,                        !- Loads Convergence Tolerance Value
    ,                        !- Temperature Convergence Tolerance Value {deltaC}
    FullInteriorAndExterior, !- Solar Distribution
    25,                      !- Maximum Number of Warmup Days
    6;                       !- Minimum Number of Warmup Days


!-   ===========  ALL OBJECTS IN CLASS: SHADOWCALCULATION ===========

ShadowCalculation,
    AverageOverDaysInFrequency,  !- Calculation Method
    30,                      !- Calculation Frequency
    3000;                    !- Maximum Figures in Shadow Overlap Calculations


!-   ===========  ALL OBJECTS IN CLASS: SURFACECONVECTIONALGORITHM:INSIDE ===========

SurfaceConvectionAlgorithm:Inside,TARP;

!-   ===========  ALL OBJECTS IN CLASS: SURFACECONVECTIONALGORITHM:OUTSIDE ===========

SurfaceConvectionAlgorithm:Outside,TARP;

!-   ===========  ALL OBJECTS IN CLASS: HEATBALANCEALGORITHM ===========

HeatBalanceAlgorithm,ConductionTransferFunction,200,0.1,1000;

!-   ===========  ALL OBJECTS IN CLASS: ZONEAIRHEATBALANCEALGORITHM ===========

ZoneAirHeatBalanceAlgorithm,AnalyticalSolution;

!-   ===========  ALL OBJECTS IN CLASS: TIMESTEP ===========

Timestep,4;

!-   ===========  ALL OBJECTS IN CLASS: CONVERGENCELIMITS ===========


ConvergenceLimits,
    2,                       !- Minimum System Timestep {minutes}
    25;                      !- Maximum HVAC Iterations


!-   ===========  ALL OBJECTS IN CLASS: SITE:LOCATION ===========

Site:Location,
    San Francisco Intl Ap_CA_USA Design_Conditions,  !- Name
    37.62,                   !- Latitude {deg}
    -122.40,                 !- Longitude {deg}
    -8.00,                   !- Time Zone {hr}
    2.00;                    !- Elevation {m}


!-   ===========  ALL OBJECTS IN CLASS: SIZINGPERIOD:DESIGNDAY ===========

SizingPeriod:DesignDay,
    SAN_FRANCISCO Ann Htg 99.6% Condns DB,  !- Name
    1,                       !- Month
    21,                      !- Day of Month
    WinterDesignDay,         !- Day Type
    3.2,                     !- Maximum Dry-Bulb Temperature {C}
    0.0,                     !- Daily Dry-Bulb Temperature Range {deltaC}
    ,                        !- Dry-Bulb Temperature Range Modifier Type
    ,                        !- Dry-Bulb Temperature Range Modifier Day Schedule Name
    Wetbulb,                 !- Humidity Condition Type
    3.2,                     !- Wetbulb or DewPoint at Maximum Dry-Bulb {C}
    ,                        !- Humidity Condition Day Schedule Name
    ,                        !- Humidity Ratio at Maximum Dry-Bulb {kgWater/kgDryAir}
    ,                        !- Enthalpy at Maximum Dry-Bulb {J/kg}
    ,                        !- Daily Wet-Bulb Temperature Range {deltaC}
    101265.,                 !- Barometric Pressure {Pa}
    2.4,                     !- Wind Speed {m/s}
    140,                     !- Wind Direction {deg}
    No,                      !- Rain Indicator
    No,                      !- Snow Indicator
    No,                      !- Daylight Saving Time Indicator
    ASHRAEClearSky,          !- Solar Model Indicator
    ,                        !- Beam Solar Day Schedule Name
    ,                        !- Diffuse Solar Day Schedule Name
    ,                        !- ASHRAE Clear Sky Optical Depth for Beam Irradiance (taub) {dimensionless}
    ,                        !- ASHRAE Clear Sky Optical Depth for Diffuse Irradiance (taud) {dimensionless}
    0.00;                    !- Sky Clearness

SizingPeriod:DesignDay,
    SAN_FRANCISCO Ann Clg .4% Condns WB=>MDB,  !- Name
    9,                       !- Month
    21,                      !- Day of Month
    SummerDesignDay,         !- Day Type
    25.7,                    !- Maximum Dry-Bulb Temperature {C}
    9,                       !- Daily Dry-Bulb Temperature Range {deltaC}
    ,                        !- Dry-Bulb Temperature Range Modifier Type
    ,                        !- Dry-Bulb Temperature Range Modifier Day Schedule Name
    Wetbulb,                 !- Humidity Condition Type
    18.4,                    !- Wetbulb or DewPoint at Maximum Dry-Bulb {C}
    ,                        !- Humidity Condition Day Schedule Name
    ,                        !- Humidity Ratio at Maximum Dry-Bulb {kgWater/kgDryAir}
    ,                        !- Enthalpy at Maximum Dry-Bulb {J/kg}
    ,                        !- Daily Wet-Bulb Temperature Range {deltaC}
    101265.,                 !- Barometric Pressure {Pa}
    5.8,                     !- Wind Speed {m/s}
    310,                     !- Wind Direction {deg}
    No,                      !- Rain Indicator
    No,                      !- Snow Indicator
    No,                      !- Daylight Saving Time Indicator
    ASHRAEClearSky,          !- Solar Model Indicator
    ,                        !- Beam Solar Day Schedule Name
    ,                        !- Diffuse Solar Day Schedule Name
    ,                        !- ASHRAE Clear Sky Optical Depth for Beam Irradiance (taub) {dimensionless}
    ,                        !- ASHRAE Clear Sky Optical Depth for Diffuse Irradiance (taud) {dimensionless}
    1.00;                    !- Sky Clearness


!-   ===========  ALL OBJECTS IN CLASS: RUNPERIOD ===========

RunPeriod,
    Simulation,              !- Name
    1,                       !- Begin Month
    1,                       !- Begin Day of Month
    12,                      !- End Month
    31,                      !- End Day of Month
    Tuesday,                 !- Day of Week for Start Day
    Yes,                     !- Use Weather File Holidays and Special Days
    Yes,                     !- Use Weather File Daylight Saving Period
    Yes,                     !- Apply Weekend Holiday Rule
    Yes,                     !- Use Weather File Rain Indicators
    Yes,                     !- Use Weather File Snow Indicators
    1;                       !- Number of Times Runperiod to be Repeated


!-   ===========  ALL OBJECTS IN CLASS: SITE:GROUNDTEMPERATURE:BUILDINGSURFACE ===========

Site:GroundTemperature:BuildingSurface,19.905,19.922,19.910,19.932,19.949,20.038,20.327,20.062,20.443,20.088,19.986,19.948;

!-   ===========  ALL OBJECTS IN CLASS: SCHEDULETYPELIMITS ===========


ScheduleTypeLimits,
    Fraction,                !- Name
    0,                       !- Lower Limit Value
    1,                       !- Upper Limit Value
    CONTINUOUS;              !- Numeric Type

ScheduleTypeLimits,
    L1S1-Checkout Thermal Zone Thermostat Schedule Type Limits,  !- Name
    0,                       !- Lower Limit Value
    4,                       !- Upper Limit Value
    DISCRETE;                !- Numeric Type

ScheduleTypeLimits,
    Temperature,             !- Name
    -140,                    !- Lower Limit Value
    300,                     !- Upper Limit Value
    CONTINUOUS,              !- Numeric Type
    temperature;             !- Unit Type

ScheduleTypeLimits,
    L1S1-Loading Thermal Zone Thermostat Schedule Type Limits,  !- Name
    0,                       !- Lower Limit Value
    4,                       !- Upper Limit Value
    DISCRETE;                !- Numeric Type

ScheduleTypeLimits,
    L1S1-PreparedFoods Thermal Zone Thermostat Schedule Type Limits,  !- Name
    0,                       !- Lower Limit Value
    4,                       !- Upper Limit Value
    DISCRETE;                !- Numeric Type

ScheduleTypeLimits,
    L1S1-PreparedFoodsPrep Thermal Zone Thermostat Schedule Type Limits,  !- Name
    0,                       !- Lower Limit Value
    4,                       !- Upper Limit Value
    DISCRETE;                !- Numeric Type

ScheduleTypeLimits,
    L1S1-Produce Thermal Zone Thermostat Schedule Type Limits,  !- Name
    0,                       !- Lower Limit Value
    4,                       !- Upper Limit Value
    DISCRETE;                !- Numeric Type

ScheduleTypeLimits,
    L1S1-SalesAisle1 Thermal Zone Thermostat Schedule Type Limits,  !- Name
    0,                       !- Lower Limit Value
    4,                       !- Upper Limit Value
    DISCRETE;                !- Numeric Type

ScheduleTypeLimits,
    L1S1-SalesNorth Thermal Zone Thermostat Schedule Type Limits,  !- Name
    0,                       !- Lower Limit Value
    4,                       !- Upper Limit Value
    DISCRETE;                !- Numeric Type

ScheduleTypeLimits,
    L1S1-SalesSouth Thermal Zone Thermostat Schedule Type Limits,  !- Name
    0,                       !- Lower Limit Value
    4,                       !- Upper Limit Value
    DISCRETE;                !- Numeric Type

ScheduleTypeLimits,
    L1S1-SpecialtyService Thermal Zone Thermostat Schedule Type Limits,  !- Name
    0,                       !- Lower Limit Value
    4,                       !- Upper Limit Value
    DISCRETE;                !- Numeric Type

ScheduleTypeLimits,
    ActivityLevel,           !- Name
    0,                       !- Lower Limit Value
    ,                        !- Upper Limit Value
    Continuous,              !- Numeric Type
    activitylevel;           !- Unit Type

ScheduleTypeLimits,
    Capacity,                !- Name
    0,                       !- Lower Limit Value
    ,                        !- Upper Limit Value
    Continuous,              !- Numeric Type
    capacity;                !- Unit Type

ScheduleTypeLimits,
    Any Number;              !- Name

ScheduleTypeLimits,
    Control Type,            !- Name
    0,                       !- Lower Limit Value
    4,                       !- Upper Limit Value
    DISCRETE;                !- Numeric Type

ScheduleTypeLimits,
    ControlMode,             !- Name
    0,                       !- Lower Limit Value
    1,                       !- Upper Limit Value
    Discrete;                !- Numeric Type

ScheduleTypeLimits,
    DeltaTemperature,        !- Name
    ,                        !- Lower Limit Value
    ,                        !- Upper Limit Value
    Continuous,              !- Numeric Type
    deltatemperature;        !- Unit Type

ScheduleTypeLimits,
    Dimensionless,           !- Name
    ,                        !- Lower Limit Value
    ,                        !- Upper Limit Value
    Continuous;              !- Numeric Type

ScheduleTypeLimits,
    Dimensionless 1,         !- Name
    -1,                      !- Lower Limit Value
    1,                       !- Upper Limit Value
    Continuous;              !- Numeric Type

ScheduleTypeLimits,
    Dimensionless 2,         !- Name
    0,                       !- Lower Limit Value
    1,                       !- Upper Limit Value
    Continuous,              !- Numeric Type
    dimensionless;           !- Unit Type

ScheduleTypeLimits,
    Fractional,              !- Name
    0,                       !- Lower Limit Value
    1,                       !- Upper Limit Value
    Continuous;              !- Numeric Type

ScheduleTypeLimits,
    Humidity,                !- Name
    0,                       !- Lower Limit Value
    100,                     !- Upper Limit Value
    CONTINUOUS;              !- Numeric Type

ScheduleTypeLimits,
    LinearPowerDensity,      !- Name
    0,                       !- Lower Limit Value
    ,                        !- Upper Limit Value
    Continuous;              !- Numeric Type

ScheduleTypeLimits,
    On/Off,                  !- Name
    0,                       !- Lower Limit Value
    1,                       !- Upper Limit Value
    DISCRETE,                !- Numeric Type
    availability;            !- Unit Type

ScheduleTypeLimits,
    OnOff,                   !- Name
    0,                       !- Lower Limit Value
    1,                       !- Upper Limit Value
    Discrete,                !- Numeric Type
    availability;            !- Unit Type

ScheduleTypeLimits,
    Percent,                 !- Name
    0,                       !- Lower Limit Value
    100,                     !- Upper Limit Value
    Continuous,              !- Numeric Type
    percent;                 !- Unit Type

ScheduleTypeLimits,
    Schedule Type Limits 1,  !- Name
    0,                       !- Lower Limit Value
    1,                       !- Upper Limit Value
    Discrete,                !- Numeric Type
    availability;            !- Unit Type

ScheduleTypeLimits,
    Velocity,                !- Name
    0,                       !- Lower Limit Value
    ,                        !- Upper Limit Value
    Continuous,              !- Numeric Type
    velocity;                !- Unit Type

ScheduleTypeLimits,
    VolumetricFlowRate,      !- Name
    0,                       !- Lower Limit Value
    ,                        !- Upper Limit Value
    Continuous;              !- Numeric Type


!-   ===========  ALL OBJECTS IN CLASS: SCHEDULE:DAY:INTERVAL ===========

Schedule:Day:Interval,
    Schedule Day 1,          !- Name
    Temperature,             !- Schedule Type Limits Name
    No,                      !- Interpolate to Timestep
    24:00,                   !- Time 1 {hh:mm}
    24.4444444444444;        !- Value Until Time 1

Schedule:Day:Interval,
    Schedule Day 3,          !- Name
    Temperature,             !- Schedule Type Limits Name
    No,                      !- Interpolate to Timestep
    24:00,                   !- Time 1 {hh:mm}
    15.6000003814697;        !- Value Until Time 1

Schedule:Day:Interval,
    Schedule Day 2,          !- Name
    Temperature,             !- Schedule Type Limits Name
    No,                      !- Interpolate to Timestep
    24:00,                   !- Time 1 {hh:mm}
    24.4444444444444;        !- Value Until Time 1

Schedule:Day:Interval,
    Schedule Day 5,          !- Name
    Temperature,             !- Schedule Type Limits Name
    No,                      !- Interpolate to Timestep
    24:00,                   !- Time 1 {hh:mm}
    29.9999980926514;        !- Value Until Time 1


!-   ===========  ALL OBJECTS IN CLASS: SCHEDULE:WEEK:DAILY ===========

Schedule:Week:Daily,
    Schedule:Week:Daily {e560cc63-bda5-4bbf-a679-93ac803cdf5b},  !- Name
    Schedule Day 1,          !- Sunday Schedule:Day Name
    Schedule Day 1,          !- Monday Schedule:Day Name
    Schedule Day 1,          !- Tuesday Schedule:Day Name
    Schedule Day 1,          !- Wednesday Schedule:Day Name
    Schedule Day 1,          !- Thursday Schedule:Day Name
    Schedule Day 1,          !- Friday Schedule:Day Name
    Schedule Day 1,          !- Saturday Schedule:Day Name
    Schedule Day 1,          !- Holiday Schedule:Day Name
    Schedule Day 1,          !- SummerDesignDay Schedule:Day Name
    Schedule Day 3,          !- WinterDesignDay Schedule:Day Name
    Schedule Day 1,          !- CustomDay1 Schedule:Day Name
    Schedule Day 1;          !- CustomDay2 Schedule:Day Name

Schedule:Week:Daily,
    Schedule:Week:Daily {572569d1-4d4f-44fd-825a-43dd7b9226f6},  !- Name
    Schedule Day 2,          !- Sunday Schedule:Day Name
    Schedule Day 2,          !- Monday Schedule:Day Name
    Schedule Day 2,          !- Tuesday Schedule:Day Name
    Schedule Day 2,          !- Wednesday Schedule:Day Name
    Schedule Day 2,          !- Thursday Schedule:Day Name
    Schedule Day 2,          !- Friday Schedule:Day Name
    Schedule Day 2,          !- Saturday Schedule:Day Name
    Schedule Day 2,          !- Holiday Schedule:Day Name
    Schedule Day 2,          !- SummerDesignDay Schedule:Day Name
    Schedule Day 5,          !- WinterDesignDay Schedule:Day Name
    Schedule Day 2,          !- CustomDay1 Schedule:Day Name
    Schedule Day 2;          !- CustomDay2 Schedule:Day Name


!-   ===========  ALL OBJECTS IN CLASS: SCHEDULE:YEAR ===========

Schedule:Year,
    HTGSETP_SCH,             !- Name
    Temperature,             !- Schedule Type Limits Name
    Schedule:Week:Daily {e560cc63-bda5-4bbf-a679-93ac803cdf5b},  !- Schedule:Week Name 1
    1,                       !- Start Month 1
    1,                       !- Start Day 1
    12,                      !- End Month 1
    31;                      !- End Day 1

Schedule:Year,
    CLGSETP_SCH,             !- Name
    Temperature,             !- Schedule Type Limits Name
    Schedule:Week:Daily {572569d1-4d4f-44fd-825a-43dd7b9226f6},  !- Schedule:Week Name 1
    1,                       !- Start Month 1
    1,                       !- Start Day 1
    12,                      !- End Month 1
    31;                      !- End Day 1


!-   ===========  ALL OBJECTS IN CLASS: SCHEDULE:COMPACT ===========

Schedule:Compact,
    Always ON,               !- Name
    On/Off,                  !- Schedule Type Limits Name
    Through: 12/31,          !- Field 1
    For: AllDays,            !- Field 2
    Until: 24:00, 1;         !- Field 4

Schedule:Compact,
    Always OFF,              !- Name
    On/Off,                  !- Schedule Type Limits Name
    Through: 12/31,          !- Field 1
    For: AllDays,            !- Field 2
    Until: 24:00, 0;         !- Field 4

Schedule:Compact,
    Mostly OFF,              !- Name
    Fraction,                !- Schedule Type Limits Name
    Through: 12/31,          !- Field 1
    For: AllDays,            !- Field 2
    Until: 1:00, 0,          !- Field 4
    Until: 2:00, 0,          !- Field 6
    Until: 3:00, 0,          !- Field 8
    Until: 4:00, 0,          !- Field 10
    Until: 5:00, 0,          !- Field 12
    Until: 6:00, 0,          !- Field 14
    Until: 7:00, 0.01,       !- Field 16
    Until: 8:00, 0.02,       !- Field 18
    Until: 9:00, 0.05,       !- Field 20
    Until: 10:00, 0.05,      !- Field 22
    Until: 11:00, 0.02,      !- Field 24
    Until: 12:00, 0.01,      !- Field 26
    Until: 13:00, 0,         !- Field 28
    Until: 14:00, 0,         !- Field 30
    Until: 15:00, 0,         !- Field 32
    Until: 16:00, 0,         !- Field 34
    Until: 17:00, 0,         !- Field 36
    Until: 18:00, 0,         !- Field 38
    Until: 19:00, 0,         !- Field 40
    Until: 20:00, 0,         !- Field 42
    Until: 21:00, 0,         !- Field 44
    Until: 22:00, 0,         !- Field 46
    Until: 23:00, 0,         !- Field 48
    Until: 24:00, 0;         !- Field 50

Schedule:Compact,
    Lighting - Night Switched 1,  !- Name
    Fraction,                !- Schedule Type Limits Name
    Through: 12/31,          !- Field 1
    For: AllDays,            !- Field 2
    Until: 1:00, 0.037,      !- Field 4
    Until: 2:00, 0.036,      !- Field 6
    Until: 3:00, 0.037,      !- Field 8
    Until: 4:00, 0.037,      !- Field 10
    Until: 5:00, 0.065,      !- Field 12
    Until: 6:00, 0.072,      !- Field 14
    Until: 7:00, 0.292,      !- Field 16
    Until: 8:00, 0.639,      !- Field 18
    Until: 9:00, 0.895,      !- Field 20
    Until: 10:00, 0.89,      !- Field 22
    Until: 11:00, 0.89,      !- Field 24
    Until: 12:00, 0.888,     !- Field 26
    Until: 13:00, 0.887,     !- Field 28
    Until: 14:00, 0.885,     !- Field 30
    Until: 15:00, 0.888,     !- Field 32
    Until: 16:00, 0.888,     !- Field 34
    Until: 17:00, 0.892,     !- Field 36
    Until: 18:00, 0.891,     !- Field 38
    Until: 19:00, 0.895,     !- Field 40
    Until: 20:00, 0.894,     !- Field 42
    Until: 21:00, 0.904,     !- Field 44
    Until: 22:00, 0.902,     !- Field 46
    Until: 23:00, 0.383,     !- Field 48
    Until: 24:00, 0.037;     !- Field 50

Schedule:Compact,
    Lighting - Night Dimmed 1,  !- Name
    Fraction,                !- Schedule Type Limits Name
    Through: 12/31,          !- Field 1
    For: AllDays,            !- Field 2
    Until: 1:00, 0.451,      !- Field 4
    Until: 2:00, 0.49,       !- Field 6
    Until: 3:00, 0.518,      !- Field 8
    Until: 4:00, 0.575,      !- Field 10
    Until: 5:00, 0.591,      !- Field 12
    Until: 6:00, 0.675,      !- Field 14
    Until: 7:00, 0.78,       !- Field 16
    Until: 8:00, 0.863,      !- Field 18
    Until: 9:00, 0.856,      !- Field 20
    Until: 10:00, 0.882,     !- Field 22
    Until: 11:00, 0.85,      !- Field 24
    Until: 12:00, 0.835,     !- Field 26
    Until: 13:00, 0.864,     !- Field 28
    Until: 14:00, 0.844,     !- Field 30
    Until: 15:00, 0.846,     !- Field 32
    Until: 16:00, 0.841,     !- Field 34
    Until: 17:00, 0.843,     !- Field 36
    Until: 18:00, 0.863,     !- Field 38
    Until: 19:00, 0.844,     !- Field 40
    Until: 20:00, 0.81,      !- Field 42
    Until: 21:00, 0.809,     !- Field 44
    Until: 22:00, 0.819,     !- Field 46
    Until: 23:00, 0.746,     !- Field 48
    Until: 24:00, 0.568;     !- Field 50

Schedule:Compact,
    Lighting - BOH Variable 1,  !- Name
    Fraction,                !- Schedule Type Limits Name
    Through: 12/31,          !- Field 1
    For: AllDays,            !- Field 2
    Until: 1:00, 0,          !- Field 4
    Until: 2:00, 0,          !- Field 6
    Until: 3:00, 0,          !- Field 8
    Until: 4:00, 0,          !- Field 10
    Until: 5:00, 0,          !- Field 12
    Until: 6:00, 0,          !- Field 14
    Until: 7:00, 0.036,      !- Field 16
    Until: 8:00, 0.135,      !- Field 18
    Until: 9:00, 0.193,      !- Field 20
    Until: 10:00, 0.191,     !- Field 22
    Until: 11:00, 0.191,     !- Field 24
    Until: 12:00, 0.191,     !- Field 26
    Until: 13:00, 0.191,     !- Field 28
    Until: 14:00, 0.191,     !- Field 30
    Until: 15:00, 0.191,     !- Field 32
    Until: 16:00, 0.19,      !- Field 34
    Until: 17:00, 0.191,     !- Field 36
    Until: 18:00, 0.191,     !- Field 38
    Until: 19:00, 0.192,     !- Field 40
    Until: 20:00, 0.192,     !- Field 42
    Until: 21:00, 0.195,     !- Field 44
    Until: 22:00, 0.194,     !- Field 46
    Until: 23:00, 0.091,     !- Field 48
    Until: 24:00, 0;         !- Field 50

Schedule:Compact,
    Whole Foods Pylon Sign,  !- Name
    Fraction,                !- Schedule Type Limits Name
    Through: 12/31,          !- Field 1
    For: AllDays,            !- Field 2
    Until: 1:00, 0.905,      !- Field 4
    Until: 2:00, 0.908,      !- Field 6
    Until: 3:00, 0.907,      !- Field 8
    Until: 4:00, 0.906,      !- Field 10
    Until: 5:00, 0.902,      !- Field 12
    Until: 6:00, 0.9,        !- Field 14
    Until: 7:00, 0.894,      !- Field 16
    Until: 8:00, 0.893,      !- Field 18
    Until: 9:00, 0.683,      !- Field 20
    Until: 10:00, 0.367,     !- Field 22
    Until: 11:00, 0.22,      !- Field 24
    Until: 12:00, 0.137,     !- Field 26
    Until: 13:00, 0.094,     !- Field 28
    Until: 14:00, 0.082,     !- Field 30
    Until: 15:00, 0.176,     !- Field 32
    Until: 16:00, 0.327,     !- Field 34
    Until: 17:00, 0.754,     !- Field 36
    Until: 18:00, 0.919,     !- Field 38
    Until: 19:00, 0.915,     !- Field 40
    Until: 20:00, 0.921,     !- Field 42
    Until: 21:00, 0.885,     !- Field 44
    Until: 22:00, 0.893,     !- Field 46
    Until: 23:00, 0.9,       !- Field 48
    Until: 24:00, 0.91;      !- Field 50

Schedule:Compact,
    Exterior Lighting Zone K,!- Name
    Fraction,                !- Schedule Type Limits Name
    Through: 12/31,          !- Field 1
    For: AllDays,            !- Field 2
    Until: 1:00, 0.928,      !- Field 4
    Until: 2:00, 0.932,      !- Field 6
    Until: 3:00, 0.932,      !- Field 8
    Until: 4:00, 0.932,      !- Field 10
    Until: 5:00, 0.931,      !- Field 12
    Until: 6:00, 0.926,      !- Field 14
    Until: 7:00, 0.923,      !- Field 16
    Until: 8:00, 0.763,      !- Field 18
    Until: 9:00, 0.024,      !- Field 20
    Until: 10:00, 0.024,     !- Field 22
    Until: 11:00, 0.024,     !- Field 24
    Until: 12:00, 0.024,     !- Field 26
    Until: 13:00, 0.025,     !- Field 28
    Until: 14:00, 0.025,     !- Field 30
    Until: 15:00, 0.025,     !- Field 32
    Until: 16:00, 0.204,     !- Field 34
    Until: 17:00, 0.416,     !- Field 36
    Until: 18:00, 0.936,     !- Field 38
    Until: 19:00, 0.943,     !- Field 40
    Until: 20:00, 0.947,     !- Field 42
    Until: 21:00, 0.927,     !- Field 44
    Until: 22:00, 0.925,     !- Field 46
    Until: 23:00, 0.93,      !- Field 48
    Until: 24:00, 0.931;     !- Field 50

Schedule:Compact,
    Parking Lot Lights,      !- Name
    Fraction,                !- Schedule Type Limits Name
    Through: 12/31,          !- Field 1
    For: AllDays,            !- Field 2
    Until: 1:00, 0.002,      !- Field 4
    Until: 2:00, 0.002,      !- Field 6
    Until: 3:00, 0.002,      !- Field 8
    Until: 4:00, 0.002,      !- Field 10
    Until: 5:00, 0.002,      !- Field 12
    Until: 6:00, 0.556,      !- Field 14
    Until: 7:00, 0.957,      !- Field 16
    Until: 8:00, 0.604,      !- Field 18
    Until: 9:00, 0.231,      !- Field 20
    Until: 10:00, 0.154,     !- Field 22
    Until: 11:00, 0.222,     !- Field 24
    Until: 12:00, 0.049,     !- Field 26
    Until: 13:00, 0.002,     !- Field 28
    Until: 14:00, 0.002,     !- Field 30
    Until: 15:00, 0.063,     !- Field 32
    Until: 16:00, 0.328,     !- Field 34
    Until: 17:00, 0.782,     !- Field 36
    Until: 18:00, 0.96,      !- Field 38
    Until: 19:00, 0.955,     !- Field 40
    Until: 20:00, 0.953,     !- Field 42
    Until: 21:00, 0.943,     !- Field 44
    Until: 22:00, 0.943,     !- Field 46
    Until: 23:00, 0.945,     !- Field 48
    Until: 24:00, 0.425;     !- Field 50

Schedule:Compact,
    Steamer,                 !- Name
    Fraction,                !- Schedule Type Limits Name
    Through: 12/31,          !- Field 1
    For: AllDays,            !- Field 2
    Until: 1:00, 0.002,      !- Field 4
    Until: 2:00, 0.002,      !- Field 6
    Until: 3:00, 0.002,      !- Field 8
    Until: 4:00, 0.002,      !- Field 10
    Until: 5:00, 0.002,      !- Field 12
    Until: 6:00, 0.03,       !- Field 14
    Until: 7:00, 0.162,      !- Field 16
    Until: 8:00, 0.236,      !- Field 18
    Until: 9:00, 0.186,      !- Field 20
    Until: 10:00, 0.254,     !- Field 22
    Until: 11:00, 0.152,     !- Field 24
    Until: 12:00, 0.154,     !- Field 26
    Until: 13:00, 0.21,      !- Field 28
    Until: 14:00, 0.182,     !- Field 30
    Until: 15:00, 0.204,     !- Field 32
    Until: 16:00, 0.161,     !- Field 34
    Until: 17:00, 0.212,     !- Field 36
    Until: 18:00, 0.144,     !- Field 38
    Until: 19:00, 0.131,     !- Field 40
    Until: 20:00, 0.079,     !- Field 42
    Until: 21:00, 0.053,     !- Field 44
    Until: 22:00, 0.002,     !- Field 46
    Until: 23:00, 0.002,     !- Field 48
    Until: 24:00, 0.002;     !- Field 50

Schedule:Compact,
    Checkstand,              !- Name
    Fraction,                !- Schedule Type Limits Name
    Through: 12/31,          !- Field 1
    For: AllDays,            !- Field 2
    Until: 1:00, 0.014,      !- Field 4
    Until: 2:00, 0.014,      !- Field 6
    Until: 3:00, 0.014,      !- Field 8
    Until: 4:00, 0.014,      !- Field 10
    Until: 5:00, 0.014,      !- Field 12
    Until: 6:00, 0.014,      !- Field 14
    Until: 7:00, 0.014,      !- Field 16
    Until: 8:00, 0.014,      !- Field 18
    Until: 9:00, 0.091,      !- Field 20
    Until: 10:00, 0.299,     !- Field 22
    Until: 11:00, 0.388,     !- Field 24
    Until: 12:00, 0.429,     !- Field 26
    Until: 13:00, 0.495,     !- Field 28
    Until: 14:00, 0.499,     !- Field 30
    Until: 15:00, 0.526,     !- Field 32
    Until: 16:00, 0.562,     !- Field 34
    Until: 17:00, 0.583,     !- Field 36
    Until: 18:00, 0.714,     !- Field 38
    Until: 19:00, 0.586,     !- Field 40
    Until: 20:00, 0.52,      !- Field 42
    Until: 21:00, 0.4,       !- Field 44
    Until: 22:00, 0.014,     !- Field 46
    Until: 23:00, 0.013,     !- Field 48
    Until: 24:00, 0.014;     !- Field 50

Schedule:Compact,
    Register computer,       !- Name
    Fraction,                !- Schedule Type Limits Name
    Through: 12/31,          !- Field 1
    For: AllDays,            !- Field 2
    Until: 1:00, 0.24,       !- Field 4
    Until: 2:00, 0.242,      !- Field 6
    Until: 3:00, 0.243,      !- Field 8
    Until: 4:00, 0.244,      !- Field 10
    Until: 5:00, 0.244,      !- Field 12
    Until: 6:00, 0.244,      !- Field 14
    Until: 7:00, 0.245,      !- Field 16
    Until: 8:00, 0.246,      !- Field 18
    Until: 9:00, 0.254,      !- Field 20