!-Generator IDFEditor 1.48
!-Option SortedOrder

!-NOTE: All comments with '!-' are ignored by the IDFEditor and are generated automatically.
!-      Use '!' comments if they need to be retained when using the IDFEditor.


!-   ===========  ALL OBJECTS IN CLASS: VERSION ===========

Version,
    8.6;                     !- Version Identifier


!-   ===========  ALL OBJECTS IN CLASS: SIMULATIONCONTROL ===========

SimulationControl,
    No,                      !- Do Zone Sizing Calculation
    No,                      !- Do System Sizing Calculation
    No,                      !- Do Plant Sizing Calculation
    No,                      !- Run Simulation for Sizing Periods
    Yes,                     !- Run Simulation for Weather File Run Periods
    No,                      !- Do HVAC Sizing Simulation for Sizing Periods
    1;                       !- Maximum Number of HVAC Sizing Simulation Passes


!-   ===========  ALL OBJECTS IN CLASS: BUILDING ===========

Building,
    NoeValleyWFM,            !- Name
    356.172647632627,        !- North Axis {deg}
    City,                    !- Terrain
    ,                        !- Loads Convergence Tolerance Value
    ,                        !- Temperature Convergence Tolerance Value {deltaC}
    FullInteriorAndExterior, !- Solar Distribution
    25,                      !- Maximum Number of Warmup Days
    6;                       !- Minimum Number of Warmup Days


!-   ===========  ALL OBJECTS IN CLASS: SHADOWCALCULATION ===========

ShadowCalculation,
    AverageOverDaysInFrequency,  !- Calculation Method
    30,                      !- Calculation Frequency
    3000;                    !- Maximum Figures in Shadow Overlap Calculations


!-   ===========  ALL OBJECTS IN CLASS: SURFACECONVECTIONALGORITHM:INSIDE ===========

SurfaceConvectionAlgorithm:Inside,
    TARP;                    !- Algorithm


!-   ===========  ALL OBJECTS IN CLASS: SURFACECONVECTIONALGORITHM:OUTSIDE ===========

SurfaceConvectionAlgorithm:Outside,
    TARP;                    !- Algorithm


!-   ===========  ALL OBJECTS IN CLASS: HEATBALANCEALGORITHM ===========

HeatBalanceAlgorithm,
    ConductionTransferFunction,  !- Algorithm
    200,                     !- Surface Temperature Upper Limit {C}
    0.1,                     !- Minimum Surface Convection Heat Transfer Coefficient Value {W/m2-K}
    1000;                    !- Maximum Surface Convection Heat Transfer Coefficient Value {W/m2-K}


!-   ===========  ALL OBJECTS IN CLASS: ZONEAIRHEATBALANCEALGORITHM ===========

ZoneAirHeatBalanceAlgorithm,
    AnalyticalSolution;      !- Algorithm


!-   ===========  ALL OBJECTS IN CLASS: TIMESTEP ===========

Timestep,
    4;                       !- Number of Timesteps per Hour


!-   ===========  ALL OBJECTS IN CLASS: CONVERGENCELIMITS ===========

ConvergenceLimits,
    2,                       !- Minimum System Timestep {minutes}
    25;                      !- Maximum HVAC Iterations


!-   ===========  ALL OBJECTS IN CLASS: SITE:LOCATION ===========

Site:Location,
    San Francisco Intl Ap_CA_USA Design_Conditions,  !- Name
    37.62,                   !- Latitude {deg}
    -122.40,                 !- Longitude {deg}
    -8.00,                   !- Time Zone {hr}
    2.00;                    !- Elevation {m}


!-   ===========  ALL OBJECTS IN CLASS: SIZINGPERIOD:DESIGNDAY ===========

SizingPeriod:DesignDay,
    SAN_FRANCISCO Ann Htg 99.6% Condns DB,  !- Name
    1,                       !- Month
    21,                      !- Day of Month
    WinterDesignDay,         !- Day Type
    3.2,                     !- Maximum Dry-Bulb Temperature {C}
    0.0,                     !- Daily Dry-Bulb Temperature Range {deltaC}
    ,                        !- Dry-Bulb Temperature Range Modifier Type
    ,                        !- Dry-Bulb Temperature Range Modifier Day Schedule Name
    Wetbulb,                 !- Humidity Condition Type
    3.2,                     !- Wetbulb or DewPoint at Maximum Dry-Bulb {C}
    ,                        !- Humidity Condition Day Schedule Name
    ,                        !- Humidity Ratio at Maximum Dry-Bulb {kgWater/kgDryAir}
    ,                        !- Enthalpy at Maximum Dry-Bulb {J/kg}
    ,                        !- Daily Wet-Bulb Temperature Range {deltaC}
    101265.,                 !- Barometric Pressure {Pa}
    2.4,                     !- Wind Speed {m/s}
    140,                     !- Wind Direction {deg}
    No,                      !- Rain Indicator
    No,                      !- Snow Indicator
    No,                      !- Daylight Saving Time Indicator
    ASHRAEClearSky,          !- Solar Model Indicator
    ,                        !- Beam Solar Day Schedule Name
    ,                        !- Diffuse Solar Day Schedule Name
    ,                        !- ASHRAE Clear Sky Optical Depth for Beam Irradiance (taub) {dimensionless}
    ,                        !- ASHRAE Clear Sky Optical Depth for Diffuse Irradiance (taud) {dimensionless}
    0.00;                    !- Sky Clearness

SizingPeriod:DesignDay,
    SAN_FRANCISCO Ann Clg .4% Condns WB=>MDB,  !- Name
    9,                       !- Month
    21,                      !- Day of Month
    SummerDesignDay,         !- Day Type
    25.7,                    !- Maximum Dry-Bulb Temperature {C}
    9,                       !- Daily Dry-Bulb Temperature Range {deltaC}
    ,                        !- Dry-Bulb Temperature Range Modifier Type
    ,                        !- Dry-Bulb Temperature Range Modifier Day Schedule Name
    Wetbulb,                 !- Humidity Condition Type
    18.4,                    !- Wetbulb or DewPoint at Maximum Dry-Bulb {C}
    ,                        !- Humidity Condition Day Schedule Name
    ,                        !- Humidity Ratio at Maximum Dry-Bulb {kgWater/kgDryAir}
    ,                        !- Enthalpy at Maximum Dry-Bulb {J/kg}
    ,                        !- Daily Wet-Bulb Temperature Range {deltaC}
    101265.,                 !- Barometric Pressure {Pa}
    5.8,                     !- Wind Speed {m/s}
    310,                     !- Wind Direction {deg}
    No,                      !- Rain Indicator
    No,                      !- Snow Indicator
    No,                      !- Daylight Saving Time Indicator
    ASHRAEClearSky,          !- Solar Model Indicator
    ,                        !- Beam Solar Day Schedule Name
    ,                        !- Diffuse Solar Day Schedule Name
    ,                        !- ASHRAE Clear Sky Optical Depth for Beam Irradiance (taub) {dimensionless}
    ,                        !- ASHRAE Clear Sky Optical Depth for Diffuse Irradiance (taud) {dimensionless}
    1.00;                    !- Sky Clearness


!-   ===========  ALL OBJECTS IN CLASS: RUNPERIOD ===========

RunPeriod,
    Simulation,              !- Name
    3,                       !- Begin Month
    1,                       !- Begin Day of Month
    2,                       !- End Month
    28,                      !- End Day of Month
    Tuesday,                 !- Day of Week for Start Day
    Yes,                     !- Use Weather File Holidays and Special Days
    Yes,                     !- Use Weather File Daylight Saving Period
    Yes,                     !- Apply Weekend Holiday Rule
    Yes,                     !- Use Weather File Rain Indicators
    Yes,                     !- Use Weather File Snow Indicators
    1;                       !- Number of Times Runperiod to be Repeated


!-   ===========  ALL OBJECTS IN CLASS: SITE:GROUNDTEMPERATURE:BUILDINGSURFACE ===========

Site:GroundTemperature:BuildingSurface,
    19.905,                  !- January Ground Temperature {C}
    19.922,                  !- February Ground Temperature {C}
    19.910,                  !- March Ground Temperature {C}
    19.932,                  !- April Ground Temperature {C}
    19.949,                  !- May Ground Temperature {C}
    20.038,                  !- June Ground Temperature {C}
    20.327,                  !- July Ground Temperature {C}
    20.062,                  !- August Ground Temperature {C}
    20.443,                  !- September Ground Temperature {C}
    20.088,                  !- October Ground Temperature {C}
    19.986,                  !- November Ground Temperature {C}
    19.948;                  !- December Ground Temperature {C}


!-   ===========  ALL OBJECTS IN CLASS: SCHEDULETYPELIMITS ===========

ScheduleTypeLimits,
    Fraction,                !- Name
    0,                       !- Lower Limit Value
    1,                       !- Upper Limit Value
    CONTINUOUS;              !- Numeric Type

ScheduleTypeLimits,
    L1S1-Checkout Thermal Zone Thermostat Schedule Type Limits,  !- Name
    0,                       !- Lower Limit Value
    4,                       !- Upper Limit Value
    DISCRETE;                !- Numeric Type

ScheduleTypeLimits,
    Temperature,             !- Name
    -140,                    !- Lower Limit Value
    300,                     !- Upper Limit Value
    CONTINUOUS,              !- Numeric Type
    temperature;             !- Unit Type

ScheduleTypeLimits,
    L1S1-Loading Thermal Zone Thermostat Schedule Type Limits,  !- Name
    0,                       !- Lower Limit Value
    4,                       !- Upper Limit Value
    DISCRETE;                !- Numeric Type

ScheduleTypeLimits,
    L1S1-PreparedFoods Thermal Zone Thermostat Schedule Type Limits,  !- Name
    0,                       !- Lower Limit Value
    4,                       !- Upper Limit Value
    DISCRETE;                !- Numeric Type

ScheduleTypeLimits,
    L1S1-PreparedFoodsPrep Thermal Zone Thermostat Schedule Type Limits,  !- Name
    0,                       !- Lower Limit Value
    4,                       !- Upper Limit Value
    DISCRETE;                !- Numeric Type

ScheduleTypeLimits,
    L1S1-Produce Thermal Zone Thermostat Schedule Type Limits,  !- Name
    0,                       !- Lower Limit Value
    4,                       !- Upper Limit Value
    DISCRETE;                !- Numeric Type

ScheduleTypeLimits,
    L1S1-SalesAisle1 Thermal Zone Thermostat Schedule Type Limits,  !- Name
    0,                       !- Lower Limit Value
    4,                       !- Upper Limit Value
    DISCRETE;                !- Numeric Type

ScheduleTypeLimits,
    L1S1-SalesNorth Thermal Zone Thermostat Schedule Type Limits,  !- Name
    0,                       !- Lower Limit Value
    4,                       !- Upper Limit Value
    DISCRETE;                !- Numeric Type

ScheduleTypeLimits,
    L1S1-SalesSouth Thermal Zone Thermostat Schedule Type Limits,  !- Name
    0,                       !- Lower Limit Value
    4,                       !- Upper Limit Value
    DISCRETE;                !- Numeric Type

ScheduleTypeLimits,
    L1S1-SpecialtyService Thermal Zone Thermostat Schedule Type Limits,  !- Name
    0,                       !- Lower Limit Value
    4,                       !- Upper Limit Value
    DISCRETE;                !- Numeric Type

ScheduleTypeLimits,
    ActivityLevel,           !- Name
    0,                       !- Lower Limit Value
    ,                        !- Upper Limit Value
    Continuous,              !- Numeric Type
    activitylevel;           !- Unit Type

ScheduleTypeLimits,
    Capacity,                !- Name
    0,                       !- Lower Limit Value
    ,                        !- Upper Limit Value
    Continuous,              !- Numeric Type
    capacity;                !- Unit Type

ScheduleTypeLimits,
    Any Number;              !- Name

ScheduleTypeLimits,
    Control Type,            !- Name
    0,                       !- Lower Limit Value
    4,                       !- Upper Limit Value
    DISCRETE;                !- Numeric Type

ScheduleTypeLimits,
    ControlMode,             !- Name
    0,                       !- Lower Limit Value
    1,                       !- Upper Limit Value
    Discrete;                !- Numeric Type

ScheduleTypeLimits,
    DeltaTemperature,        !- Name
    ,                        !- Lower Limit Value
    ,                        !- Upper Limit Value
    Continuous,              !- Numeric Type
    deltatemperature;        !- Unit Type

ScheduleTypeLimits,
    Dimensionless,           !- Name
    ,                        !- Lower Limit Value
    ,                        !- Upper Limit Value
    Continuous;              !- Numeric Type

ScheduleTypeLimits,
    Dimensionless 1,         !- Name
    -1,                      !- Lower Limit Value
    1,                       !- Upper Limit Value
    Continuous;              !- Numeric Type

ScheduleTypeLimits,
    Dimensionless 2,         !- Name
    0,                       !- Lower Limit Value
    1,                       !- Upper Limit Value
    Continuous,              !- Numeric Type
    dimensionless;           !- Unit Type

ScheduleTypeLimits,
    Fractional,              !- Name
    0,                       !- Lower Limit Value
    1,                       !- Upper Limit Value
    Continuous;              !- Numeric Type

ScheduleTypeLimits,
    Humidity,                !- Name
    0,                       !- Lower Limit Value
    100,                     !- Upper Limit Value
    CONTINUOUS;              !- Numeric Type

ScheduleTypeLimits,
    LinearPowerDensity,      !- Name
    0,                       !- Lower Limit Value
    ,                        !- Upper Limit Value
    Continuous;              !- Numeric Type

ScheduleTypeLimits,
    On/Off,                  !- Name
    0,                       !- Lower Limit Value
    1,                       !- Upper Limit Value
    DISCRETE,                !- Numeric Type
    availability;            !- Unit Type

ScheduleTypeLimits,
    OnOff,                   !- Name
    0,                       !- Lower Limit Value
    1,                       !- Upper Limit Value
    Discrete,                !- Numeric Type
    availability;            !- Unit Type

ScheduleTypeLimits,
    Percent,                 !- Name
    0,                       !- Lower Limit Value
    100,                     !- Upper Limit Value
    Continuous,              !- Numeric Type
    percent;                 !- Unit Type

ScheduleTypeLimits,
    Schedule Type Limits 1,  !- Name
    0,                       !- Lower Limit Value
    1,                       !- Upper Limit Value
    Discrete,                !- Numeric Type
    availability;            !- Unit Type

ScheduleTypeLimits,
    Velocity,                !- Name
    0,                       !- Lower Limit Value
    ,                        !- Upper Limit Value
    Continuous,              !- Numeric Type
    velocity;                !- Unit Type

ScheduleTypeLimits,
    VolumetricFlowRate,      !- Name
    0,                       !- Lower Limit Value
    ,                        !- Upper Limit Value
    Continuous;              !- Numeric Type


!-   ===========  ALL OBJECTS IN CLASS: SCHEDULE:DAY:INTERVAL ===========

Schedule:Day:Interval,
    Schedule Day 1,          !- Name
    Temperature,             !- Schedule Type Limits Name
    No,                      !- Interpolate to Timestep
    06:00,                   !- Time 1 {hh:mm}
    15.6000003814697,        !- Value Until Time 1
    22:00,                   !- Time 2 {hh:mm}
    21,                      !- Value Until Time 2
    24:00,                   !- Time 3 {hh:mm}
    15.6000003814697;        !- Value Until Time 3

Schedule:Day:Interval,
    Schedule Day 3,          !- Name
    Temperature,             !- Schedule Type Limits Name
    No,                      !- Interpolate to Timestep
    24:00,                   !- Time 1 {hh:mm}
    15.6000003814697;        !- Value Until Time 1

Schedule:Day:Interval,
    Schedule Day 2,          !- Name
    Temperature,             !- Schedule Type Limits Name
    No,                      !- Interpolate to Timestep
    06:00,                   !- Time 1 {hh:mm}
    24,                      !- Value Until Time 1
    22:00,                   !- Time 2 {hh:mm}
    29.9999980926514,        !- Value Until Time 2
    24:00,                   !- Time 3 {hh:mm}
    24;                      !- Value Until Time 3

Schedule:Day:Interval,
    Schedule Day 5,          !- Name
    Temperature,             !- Schedule Type Limits Name
    No,                      !- Interpolate to Timestep
    24:00,                   !- Time 1 {hh:mm}
    29.9999980926514;        !- Value Until Time 1


!-   ===========  ALL OBJECTS IN CLASS: SCHEDULE:WEEK:DAILY ===========

Schedule:Week:Daily,
    Schedule:Week:Daily {e560cc63-bda5-4bbf-a679-93ac803cdf5b},  !- Name
    Schedule Day 1,          !- Sunday Schedule:Day Name
    Schedule Day 1,          !- Monday Schedule:Day Name
    Schedule Day 1,          !- Tuesday Schedule:Day Name
    Schedule Day 1,          !- Wednesday Schedule:Day Name
    Schedule Day 1,          !- Thursday Schedule:Day Name
    Schedule Day 1,          !- Friday Schedule:Day Name
    Schedule Day 1,          !- Saturday Schedule:Day Name
    Schedule Day 1,          !- Holiday Schedule:Day Name
    Schedule Day 1,          !- SummerDesignDay Schedule:Day Name
    Schedule Day 3,          !- WinterDesignDay Schedule:Day Name
    Schedule Day 1,          !- CustomDay1 Schedule:Day Name
    Schedule Day 1;          !- CustomDay2 Schedule:Day Name

Schedule:Week:Daily,
    Schedule:Week:Daily {572569d1-4d4f-44fd-825a-43dd7b9226f6},  !- Name
    Schedule Day 2,          !- Sunday Schedule:Day Name
    Schedule Day 2,          !- Monday Schedule:Day Name
    Schedule Day 2,          !- Tuesday Schedule:Day Name
    Schedule Day 2,          !- Wednesday Schedule:Day Name
    Schedule Day 2,          !- Thursday Schedule:Day Name
    Schedule Day 2,          !- Friday Schedule:Day Name
    Schedule Day 2,          !- Saturday Schedule:Day Name
    Schedule Day 2,          !- Holiday Schedule:Day Name
    Schedule Day 2,          !- SummerDesignDay Schedule:Day Name
    Schedule Day 5,          !- WinterDesignDay Schedule:Day Name
    Schedule Day 2,          !- CustomDay1 Schedule:Day Name
    Schedule Day 2;          !- CustomDay2 Schedule:Day Name


!-   ===========  ALL OBJECTS IN CLASS: SCHEDULE:YEAR ===========

Schedule:Year,
    HTGSETP_SCH,             !- Name
    Temperature,             !- Schedule Type Limits Name
    Schedule:Week:Daily {e560cc63-bda5-4bbf-a679-93ac803cdf5b},  !- Schedule:Week Name 1
    1,                       !- Start Month 1
    1,                       !- Start Day 1
    12,                      !- End Month 1
    31;                      !- End Day 1

Schedule:Year,
    CLGSETP_SCH,             !- Name
    Temperature,             !- Schedule Type Limits Name
    Schedule:Week:Daily {572569d1-4d4f-44fd-825a-43dd7b9226f6},  !- Schedule:Week Name 1
    1,                       !- Start Month 1
    1,                       !- Start Day 1
    12,                      !- End Month 1
    31;                      !- End Day 1


!-   ===========  ALL OBJECTS IN CLASS: SCHEDULE:COMPACT ===========

Schedule:Compact,
    ALWAYS_ON,               !- Name
    On/Off,                  !- Schedule Type Limits Name
    Through: 12/31,          !- Field 1
    For: AllDays,            !- Field 2
    Until: 24:00,            !- Field 3
    1;                       !- Field 4

Schedule:Compact,
    ALWAYS_OFF,              !- Name
    On/Off,                  !- Schedule Type Limits Name
    Through: 12/31,          !- Field 1
    For: AllDays,            !- Field 2
    Until: 24:00,            !- Field 3
    0;                       !- Field 4

Schedule:Compact,
    CLOTHING_SCH,            !- Name
    Any Number,              !- Schedule Type Limits Name
    Through: 04/30,          !- Field 1
    For: AllDays,            !- Field 2
    Until: 24:00,            !- Field 3
    1.0,                     !- Field 4
    Through: 09/30,          !- Field 5
    For: AllDays,            !- Field 6
    Until: 24:00,            !- Field 7
    0.5,                     !- Field 8
    Through: 12/31,          !- Field 9
    For: AllDays,            !- Field 10
    Until: 24:00,            !- Field 11
    1.0;                     !- Field 12

Schedule:Compact,
    ACTIVITY_SCH,            !- Name
    Any Number,              !- Schedule Type Limits Name
    Through: 12/31,          !- Field 1
    For: AllDays,            !- Field 2
    Until: 24:00,            !- Field 3
    120.;                    !- Field 4

Schedule:Compact,
    AIR_VELO_SCH,            !- Name
    Any Number,              !- Schedule Type Limits Name
    Through: 12/31,          !- Field 1
    For: AllDays,            !- Field 2
    Until: 24:00,            !- Field 3
    0.2;                     !- Field 4

Schedule:Compact,
    Occupancy_Sales,         !- Name
    Fraction,                !- Schedule Type Limits Name
    Through: 12/31,          !- Field 1
    For: Weekdays,           !- Field 2
    Until: 06:00,            !- Field 3
    0.0,                     !- Field 4
    Until: 08:00,            !- Field 5
    0.1,                     !- Field 6
    Until: 09:00,            !- Field 7
    0.2,                     !- Field 8
    Until: 11:00,            !- Field 9
    0.5,                     !- Field 10
    Until: 15:00,            !- Field 11
    0.7,                     !- Field 12
    Until: 16:00,            !- Field 13
    0.8,                     !- Field 14
    Until: 17:00,            !- Field 15
    0.7,                     !- Field 16
    Until: 19:00,            !- Field 17
    0.5,                     !- Field 18
    Until: 22:00,            !- Field 19
    0.3,                     !- Field 20
    Until: 24:00,            !- Field 21
    0.0,                     !- Field 22
    For: SummerDesignDay,    !- Field 23
    Until: 24:00,            !- Field 24
    1.0,                     !- Field 25
    For: Saturday,           !- Field 26
    Until: 06:00,            !- Field 27
    0.0,                     !- Field 28
    Until: 08:00,            !- Field 29
    0.1,                     !- Field 30
    Until: 09:00,            !- Field 31
    0.2,                     !- Field 32
    Until: 10:00,            !- Field 33
    0.5,                     !- Field 34
    Until: 11:00,            !- Field 35
    0.6,                     !- Field 36
    Until: 17:00,            !- Field 37
    0.8,                     !- Field 38
    Until: 18:00,            !- Field 39
    0.6,                     !- Field 40
    Until: 21:00,            !- Field 41
    0.2,                     !- Field 42
    Until: 22:00,            !- Field 43
    0.1,                     !- Field 44
    Until: 24:00,            !- Field 45
    0.0,                     !- Field 46
    For: WinterDesignDay,    !- Field 47
    Until: 24:00,            !- Field 48
    0.0,                     !- Field 49
    For: Sunday Holidays AllOtherDays,  !- Field 50
    Until: 06:00,            !- Field 51
    0.0,                     !- Field 52
    Until: 10:00,            !- Field 53
    0.1,                     !- Field 54
    Until: 12:00,            !- Field 55
    0.2,                     !- Field 56
    Until: 17:00,            !- Field 57
    0.4,                     !- Field 58
    Until: 18:00,            !- Field 59
    0.2,                     !- Field 60
    Until: 22:00,            !- Field 61
    0.1,                     !- Field 62
    Until: 24:00,            !- Field 63
    0.0;                     !- Field 64

Schedule:Compact,
    Occupancy_Checkout,      !- Name
    Fraction,                !- Schedule Type Limits Name
    Through: 12/31,          !- Field 1
    For: Weekdays,           !- Field 2
    Until: 06:00,            !- Field 3
    0.0,                     !- Field 4
    Until: 08:00,            !- Field 5
    0.1,                     !- Field 6
    Until: 09:00,            !- Field 7
    0.2,                     !- Field 8
    Until: 11:00,            !- Field 9
    0.5,                     !- Field 10
    Until: 15:00,            !- Field 11
    0.7,                     !- Field 12
    Until: 16:00,            !- Field 13
    0.8,                     !- Field 14
    Until: 17:00,            !- Field 15
    0.7,                     !- Field 16
    Until: 19:00,            !- Field 17
    0.5,                     !- Field 18
    Until: 22:00,            !- Field 19
    0.3,                     !- Field 20
    Until: 24:00,            !- Field 21
    0.0,                     !- Field 22
    For: SummerDesignDay,    !- Field 23
    Until: 24:00,            !- Field 24
    1.0,                     !- Field 25
    For: Saturday,           !- Field 26
    Until: 06:00,            !- Field 27
    0.0,                     !- Field 28
    Until: 08:00,            !- Field 29
    0.1,                     !- Field 30
    Until: 09:00,            !- Field 31
    0.2,                     !- Field 32
    Until: 10:00,            !- Field 33
    0.5,                     !- Field 34
    Until: 11:00,            !- Field 35
    0.6,                     !- Field 36
    Until: 17:00,            !- Field 37
    0.8,                     !- Field 38
    Until: 18:00,            !- Field 39
    0.6,                     !- Field 40
    Until: 21:00,            !- Field 41
    0.2,                     !- Field 42
    Until: 22:00,            !- Field 43
    0.1,                     !- Field 44
    Until: 24:00,            !- Field 45
    0.0,                     !- Field 46
    For: WinterDesignDay,    !- Field 47
    Until: 24:00,            !- Field 48
    0.0,                     !- Field 49
    For: Sunday Holidays AllOtherDays,  !- Field 50
    Until: 06:00,            !- Field 51
    0.0,                     !- Field 52
    Until: 10:00,            !- Field 53
    0.1,                     !- Field 54
    Until: 12:00,            !- Field 55
    0.2,                     !- Field 56
    Until: 17:00,            !- Field 57
    0.4,                     !- Field 58
    Until: 18:00,            !- Field 59
    0.2,                     !- Field 60
    Until: 22:00,            !- Field 61
    0.1,                     !- Field 62
    Until: 24:00,            !- Field 63
    0.0;                     !- Field 64

Schedule:Compact,
    Occupancy_Office,        !- Name
    Fraction,                !- Schedule Type Limits Name
    Through: 12/31,          !- Field 1
    For: Weekdays,           !- Field 2
    Until: 06:00,            !- Field 3
    0.0,                     !- Field 4
    Until: 08:00,            !- Field 5
    0.1,                     !- Field 6
    Until: 09:00,            !- Field 7
    0.2,                     !- Field 8
    Until: 11:00,            !- Field 9
    0.5,                     !- Field 10
    Until: 15:00,            !- Field 11
    0.7,                     !- Field 12
    Until: 16:00,            !- Field 13
    0.8,                     !- Field 14
    Until: 17:00,            !- Field 15
    0.7,                     !- Field 16
    Until: 19:00,            !- Field 17
    0.5,                     !- Field 18
    Until: 22:00,            !- Field 19
    0.3,                     !- Field 20
    Until: 24:00,            !- Field 21
    0.0,                     !- Field 22
    For: SummerDesignDay,    !- Field 23
    Until: 24:00,            !- Field 24
    1.0,                     !- Field 25
    For: Saturday,           !- Field 26
    Until: 06:00,            !- Field 27
    0.0,                     !- Field 28
    Until: 08:00,            !- Field 29
    0.1,                     !- Field 30
    Until: 09:00,            !- Field 31
    0.2,                     !- Field 32
    Until: 10:00,            !- Field 33
    0.5,                     !- Field 34
    Until: 11:00,            !- Field 35
    0.6,                     !- Field 36
    Until: 17:00,            !- Field 37
    0.8,                     !- Field 38
    Until: 18:00,            !- Field 39
    0.6,                     !- Field 40
    Until: 21:00,            !- Field 41
    0.2,                     !- Field 42
    Until: 22:00,            !- Field 43
    0.1,                     !- Field 44
    Until: 24:00,            !- Field 45
    0.0,                     !- Field 46
    For: WinterDesignDay,    !- Field 47
    Until: 24:00,            !- Field 48
    0.0,                     !- Field 49
    For: Sunday Holidays AllOtherDays,  !- Field 50
    Until: 06:00,            !- Field 51
    0.0,                     !- Field 52
    Until: 10:00,            !- Field 53
    0.1,                     !- Field 54
    Until: 12:00,            !- Field 55
    0.2,                     !- Field 56
    Until: 17:00,            !- Field 57
    0.4,                     !- Field 58
    Until: 18:00,            !- Field 59
    0.2,                     !- Field 60
    Until: 22:00,            !- Field 61
    0.1,                     !- Field 62
    Until: 24:00,            !- Field 63
    0.0;                     !- Field 64

Schedule:Compact,
    Occupancy_BOH,           !- Name
    Fraction,                !- Schedule Type Limits Name
    Through: 12/31,          !- Field 1
    For: Weekdays,           !- Field 2
    Until: 06:00,            !- Field 3
    0.0,                     !- Field 4
    Until: 08:00,            !- Field 5
    0.1,                     !- Field 6
    Until: 09:00,            !- Field 7
    0.2,                     !- Field 8
    Until: 11:00,            !- Field 9
    0.5,                     !- Field 10
    Until: 15:00,            !- Field 11
    0.7,                     !- Field 12
    Until: 16:00,            !- Field 13
    0.8,                     !- Field 14
    Until: 17:00,            !- Field 15
    0.7,                     !- Field 16
    Until: 19:00,            !- Field 17
    0.5,                     !- Field 18
    Until: 22:00,            !- Field 19
    0.3,                     !- Field 20