!-Generator IDFEditor 1.48
!-Option SortedOrder

!-NOTE: All comments with '!-' are ignored by the IDFEditor and are generated automatically.
!-      Use '!' comments if they need to be retained when using the IDFEditor.



BuildingSurface:Detailed,
    M-123-Stairs_Srf_0,      !- Name
    Floor,                   !- Surface Type
    Medium Partitions,       !- Construction Name
    M-123-Stairs Thermal Zone Thermal Zone,  !- Zone Name
    Adiabatic,               !- Outside Boundary Condition
    ,                        !- Outside Boundary Condition Object
    NoSun,                   !- Sun Exposure
    NoWind,                  !- Wind Exposure
    ,                        !- View Factor to Ground
    ,                        !- Number of Vertices
    79.675,                  !- Vertex 1 X-coordinate {m}
    61.783,                  !- Vertex 1 Y-coordinate {m}
    2.819,                   !- Vertex 1 Z-coordinate {m}
    79.675,                  !- Vertex 2 X-coordinate {m}
    55.565,                  !- Vertex 2 Y-coordinate {m}
    2.819,                   !- Vertex 2 Z-coordinate {m}
    78.231,                  !- Vertex 3 X-coordinate {m}
    55.565,                  !- Vertex 3 Y-coordinate {m}
    2.819,                   !- Vertex 3 Z-coordinate {m}
    78.231,                  !- Vertex 4 X-coordinate {m}
    61.783,                  !- Vertex 4 Y-coordinate {m}
    2.819;                   !- Vertex 4 Z-coordinate {m}

BuildingSurface:Detailed,
    M-123-Stairs_Srf_1,      !- Name
    Wall,                    !- Surface Type
    Hole,                    !- Construction Name
    M-123-Stairs Thermal Zone Thermal Zone,  !- Zone Name
    Surface,                 !- Outside Boundary Condition
    M-163-MeatPrep_Srf_6,    !- Outside Boundary Condition Object
    NoSun,                   !- Sun Exposure
    NoWind,                  !- Wind Exposure
    ,                        !- View Factor to Ground
    ,                        !- Number of Vertices
    78.231,                  !- Vertex 1 X-coordinate {m}
    61.783,                  !- Vertex 1 Y-coordinate {m}
    5.715,                   !- Vertex 1 Z-coordinate {m}
    78.231,                  !- Vertex 2 X-coordinate {m}
    61.783,                  !- Vertex 2 Y-coordinate {m}
    2.819,                   !- Vertex 2 Z-coordinate {m}
    78.231,                  !- Vertex 3 X-coordinate {m}
    55.565,                  !- Vertex 3 Y-coordinate {m}
    2.819,                   !- Vertex 3 Z-coordinate {m}
    78.231,                  !- Vertex 4 X-coordinate {m}
    55.565,                  !- Vertex 4 Y-coordinate {m}
    5.715;                   !- Vertex 4 Z-coordinate {m}

BuildingSurface:Detailed,
    M-123-Stairs_Srf_2,      !- Name
    Wall,                    !- Surface Type
    Wall_Exterior,           !- Construction Name
    M-123-Stairs Thermal Zone Thermal Zone,  !- Zone Name
    Outdoors,                !- Outside Boundary Condition
    ,                        !- Outside Boundary Condition Object
    SunExposed,              !- Sun Exposure
    WindExposed,             !- Wind Exposure
    ,                        !- View Factor to Ground
    ,                        !- Number of Vertices
    79.675,                  !- Vertex 1 X-coordinate {m}
    61.783,                  !- Vertex 1 Y-coordinate {m}
    5.715,                   !- Vertex 1 Z-coordinate {m}
    79.675,                  !- Vertex 2 X-coordinate {m}
    61.783,                  !- Vertex 2 Y-coordinate {m}
    2.819,                   !- Vertex 2 Z-coordinate {m}
    78.231,                  !- Vertex 3 X-coordinate {m}
    61.783,                  !- Vertex 3 Y-coordinate {m}
    2.819,                   !- Vertex 3 Z-coordinate {m}
    78.231,                  !- Vertex 4 X-coordinate {m}
    61.783,                  !- Vertex 4 Y-coordinate {m}
    5.715;                   !- Vertex 4 Z-coordinate {m}

BuildingSurface:Detailed,
    M-123-Stairs_Srf_3,      !- Name
    Wall,                    !- Surface Type
    Wall_Exterior,           !- Construction Name
    M-123-Stairs Thermal Zone Thermal Zone,  !- Zone Name
    Outdoors,                !- Outside Boundary Condition
    ,                        !- Outside Boundary Condition Object
    SunExposed,              !- Sun Exposure
    WindExposed,             !- Wind Exposure
    ,                        !- View Factor to Ground
    ,                        !- Number of Vertices
    79.675,                  !- Vertex 1 X-coordinate {m}
    55.565,                  !- Vertex 1 Y-coordinate {m}
    5.715,                   !- Vertex 1 Z-coordinate {m}
    79.675,                  !- Vertex 2 X-coordinate {m}
    55.565,                  !- Vertex 2 Y-coordinate {m}
    2.819,                   !- Vertex 2 Z-coordinate {m}
    79.675,                  !- Vertex 3 X-coordinate {m}
    61.783,                  !- Vertex 3 Y-coordinate {m}
    2.819,                   !- Vertex 3 Z-coordinate {m}
    79.675,                  !- Vertex 4 X-coordinate {m}
    61.783,                  !- Vertex 4 Y-coordinate {m}
    5.715;                   !- Vertex 4 Z-coordinate {m}

BuildingSurface:Detailed,
    M-123-Stairs_Srf_4,      !- Name
    Wall,                    !- Surface Type
    Hole,                    !- Construction Name
    M-123-Stairs Thermal Zone Thermal Zone,  !- Zone Name
    Surface,                 !- Outside Boundary Condition
    M-164-MeatCooler_Srf_1,  !- Outside Boundary Condition Object
    NoSun,                   !- Sun Exposure
    NoWind,                  !- Wind Exposure
    ,                        !- View Factor to Ground
    ,                        !- Number of Vertices
    78.231,                  !- Vertex 1 X-coordinate {m}
    55.565,                  !- Vertex 1 Y-coordinate {m}
    5.715,                   !- Vertex 1 Z-coordinate {m}
    78.231,                  !- Vertex 2 X-coordinate {m}
    55.565,                  !- Vertex 2 Y-coordinate {m}
    2.819,                   !- Vertex 2 Z-coordinate {m}
    79.675,                  !- Vertex 3 X-coordinate {m}
    55.565,                  !- Vertex 3 Y-coordinate {m}
    2.819,                   !- Vertex 3 Z-coordinate {m}
    79.675,                  !- Vertex 4 X-coordinate {m}
    55.565,                  !- Vertex 4 Y-coordinate {m}
    5.715;                   !- Vertex 4 Z-coordinate {m}

BuildingSurface:Detailed,
    M-123-Stairs_Srf_5,      !- Name
    Ceiling,                 !- Surface Type
    Medium Partitions,       !- Construction Name
    M-123-Stairs Thermal Zone Thermal Zone,  !- Zone Name
    Adiabatic,               !- Outside Boundary Condition
    ,                        !- Outside Boundary Condition Object
    NoSun,                   !- Sun Exposure
    NoWind,                  !- Wind Exposure
    ,                        !- View Factor to Ground
    ,                        !- Number of Vertices
    79.675,                  !- Vertex 1 X-coordinate {m}
    55.565,                  !- Vertex 1 Y-coordinate {m}
    5.715,                   !- Vertex 1 Z-coordinate {m}
    79.675,                  !- Vertex 2 X-coordinate {m}
    61.783,                  !- Vertex 2 Y-coordinate {m}
    5.715,                   !- Vertex 2 Z-coordinate {m}
    78.231,                  !- Vertex 3 X-coordinate {m}
    61.783,                  !- Vertex 3 Y-coordinate {m}
    5.715,                   !- Vertex 3 Z-coordinate {m}
    78.231,                  !- Vertex 4 X-coordinate {m}
    55.565,                  !- Vertex 4 Y-coordinate {m}
    5.715;                   !- Vertex 4 Z-coordinate {m}

BuildingSurface:Detailed,
    M-151-Stairs1_Srf_0,     !- Name
    Floor,                   !- Surface Type
    Medium Partitions,       !- Construction Name
    M-151-Stairs1 Thermal Zone Thermal Zone,  !- Zone Name
    Adiabatic,               !- Outside Boundary Condition
    ,                        !- Outside Boundary Condition Object
    NoSun,                   !- Sun Exposure
    NoWind,                  !- Wind Exposure
    ,                        !- View Factor to Ground
    ,                        !- Number of Vertices
    41.118,                  !- Vertex 1 X-coordinate {m}
    55.077,                  !- Vertex 1 Y-coordinate {m}
    2.819,                   !- Vertex 1 Z-coordinate {m}
    41.118,                  !- Vertex 2 X-coordinate {m}
    50.963,                  !- Vertex 2 Y-coordinate {m}
    2.819,                   !- Vertex 2 Z-coordinate {m}
    38.222,                  !- Vertex 3 X-coordinate {m}
    50.963,                  !- Vertex 3 Y-coordinate {m}
    2.819,                   !- Vertex 3 Z-coordinate {m}
    38.222,                  !- Vertex 4 X-coordinate {m}
    55.077,                  !- Vertex 4 Y-coordinate {m}
    2.819;                   !- Vertex 4 Z-coordinate {m}

BuildingSurface:Detailed,
    M-151-Stairs1_Srf_1,     !- Name
    Wall,                    !- Surface Type
    Hole,                    !- Construction Name
    M-151-Stairs1 Thermal Zone Thermal Zone,  !- Zone Name
    Surface,                 !- Outside Boundary Condition
    M-201-ExgStorage_Srf_17, !- Outside Boundary Condition Object
    NoSun,                   !- Sun Exposure
    NoWind,                  !- Wind Exposure
    ,                        !- View Factor to Ground
    ,                        !- Number of Vertices
    41.118,                  !- Vertex 1 X-coordinate {m}
    50.963,                  !- Vertex 1 Y-coordinate {m}
    5.715,                   !- Vertex 1 Z-coordinate {m}
    41.118,                  !- Vertex 2 X-coordinate {m}
    50.963,                  !- Vertex 2 Y-coordinate {m}
    2.819,                   !- Vertex 2 Z-coordinate {m}
    41.118,                  !- Vertex 3 X-coordinate {m}
    55.077,                  !- Vertex 3 Y-coordinate {m}
    2.819,                   !- Vertex 3 Z-coordinate {m}
    41.118,                  !- Vertex 4 X-coordinate {m}
    55.077,                  !- Vertex 4 Y-coordinate {m}
    5.715;                   !- Vertex 4 Z-coordinate {m}

BuildingSurface:Detailed,
    M-151-Stairs1_Srf_2,     !- Name
    Wall,                    !- Surface Type
    Medium Partitions,       !- Construction Name
    M-151-Stairs1 Thermal Zone Thermal Zone,  !- Zone Name
    Outdoors,                !- Outside Boundary Condition
    ,                        !- Outside Boundary Condition Object
    SunExposed,              !- Sun Exposure
    WindExposed,             !- Wind Exposure
    ,                        !- View Factor to Ground
    ,                        !- Number of Vertices
    41.118,                  !- Vertex 1 X-coordinate {m}
    50.9630000000366,        !- Vertex 1 Y-coordinate {m}
    3.22408629224517,        !- Vertex 1 Z-coordinate {m}
    38.2219864563553,        !- Vertex 2 X-coordinate {m}
    50.9629999997066,        !- Vertex 2 Y-coordinate {m}
    2.81909684839684,        !- Vertex 2 Z-coordinate {m}
    38.222,                  !- Vertex 3 X-coordinate {m}
    50.9629999997065,        !- Vertex 3 Y-coordinate {m}
    2.819,                   !- Vertex 3 Z-coordinate {m}
    41.118,                  !- Vertex 4 X-coordinate {m}
    50.9630000000001,        !- Vertex 4 Y-coordinate {m}
    2.819;                   !- Vertex 4 Z-coordinate {m}

BuildingSurface:Detailed,
    M-151-Stairs1_Srf_2 1,   !- Name
    Wall,                    !- Surface Type
    Wall_Exterior,           !- Construction Name
    M-151-Stairs1 Thermal Zone Thermal Zone,  !- Zone Name
    Outdoors,                !- Outside Boundary Condition
    ,                        !- Outside Boundary Condition Object
    SunExposed,              !- Sun Exposure
    WindExposed,             !- Wind Exposure
    ,                        !- View Factor to Ground
    ,                        !- Number of Vertices
    38.222,                  !- Vertex 1 X-coordinate {m}
    50.963,                  !- Vertex 1 Y-coordinate {m}
    5.715,                   !- Vertex 1 Z-coordinate {m}
    38.2219864563553,        !- Vertex 2 X-coordinate {m}
    50.9629999994131,        !- Vertex 2 Y-coordinate {m}
    2.81909684839684,        !- Vertex 2 Z-coordinate {m}
    41.118,                  !- Vertex 3 X-coordinate {m}
    50.9630000000367,        !- Vertex 3 Y-coordinate {m}
    3.22408629224517,        !- Vertex 3 Z-coordinate {m}
    41.118,                  !- Vertex 4 X-coordinate {m}
    50.963,                  !- Vertex 4 Y-coordinate {m}
    5.715;                   !- Vertex 4 Z-coordinate {m}

BuildingSurface:Detailed,
    M-151-Stairs1_Srf_3,     !- Name
    Wall,                    !- Surface Type
    Wall_Exterior,           !- Construction Name
    M-151-Stairs1 Thermal Zone Thermal Zone,  !- Zone Name
    Outdoors,                !- Outside Boundary Condition
    ,                        !- Outside Boundary Condition Object
    SunExposed,              !- Sun Exposure
    WindExposed,             !- Wind Exposure
    ,                        !- View Factor to Ground
    ,                        !- Number of Vertices
    38.222,                  !- Vertex 1 X-coordinate {m}
    55.077,                  !- Vertex 1 Y-coordinate {m}
    5.715,                   !- Vertex 1 Z-coordinate {m}
    38.222,                  !- Vertex 2 X-coordinate {m}
    55.077,                  !- Vertex 2 Y-coordinate {m}
    2.819,                   !- Vertex 2 Z-coordinate {m}
    38.222,                  !- Vertex 3 X-coordinate {m}
    50.963,                  !- Vertex 3 Y-coordinate {m}
    2.819,                   !- Vertex 3 Z-coordinate {m}
    38.222,                  !- Vertex 4 X-coordinate {m}
    50.963,                  !- Vertex 4 Y-coordinate {m}
    5.715;                   !- Vertex 4 Z-coordinate {m}

BuildingSurface:Detailed,
    M-151-Stairs1_Srf_4,     !- Name
    Wall,                    !- Surface Type
    Hole,                    !- Construction Name
    M-151-Stairs1 Thermal Zone Thermal Zone,  !- Zone Name
    Surface,                 !- Outside Boundary Condition
    M-201-ExgStorage_Srf_18, !- Outside Boundary Condition Object
    NoSun,                   !- Sun Exposure
    NoWind,                  !- Wind Exposure
    ,                        !- View Factor to Ground
    ,                        !- Number of Vertices
    41.118,                  !- Vertex 1 X-coordinate {m}
    55.077,                  !- Vertex 1 Y-coordinate {m}
    5.715,                   !- Vertex 1 Z-coordinate {m}
    41.118,                  !- Vertex 2 X-coordinate {m}
    55.077,                  !- Vertex 2 Y-coordinate {m}
    2.819,                   !- Vertex 2 Z-coordinate {m}
    38.222,                  !- Vertex 3 X-coordinate {m}
    55.077,                  !- Vertex 3 Y-coordinate {m}
    2.819,                   !- Vertex 3 Z-coordinate {m}
    38.222,                  !- Vertex 4 X-coordinate {m}
    55.077,                  !- Vertex 4 Y-coordinate {m}
    5.715;                   !- Vertex 4 Z-coordinate {m}

BuildingSurface:Detailed,
    M-151-Stairs1_Srf_5,     !- Name
    Ceiling,                 !- Surface Type
    Medium Partitions,       !- Construction Name
    M-151-Stairs1 Thermal Zone Thermal Zone,  !- Zone Name
    Surface,                 !- Outside Boundary Condition
    L2-201-Stairs1_Srf_0,    !- Outside Boundary Condition Object
    NoSun,                   !- Sun Exposure
    NoWind,                  !- Wind Exposure
    ,                        !- View Factor to Ground
    ,                        !- Number of Vertices
    41.118,                  !- Vertex 1 X-coordinate {m}
    50.963,                  !- Vertex 1 Y-coordinate {m}
    5.715,                   !- Vertex 1 Z-coordinate {m}
    41.118,                  !- Vertex 2 X-coordinate {m}
    55.077,                  !- Vertex 2 Y-coordinate {m}
    5.715,                   !- Vertex 2 Z-coordinate {m}
    38.222,                  !- Vertex 3 X-coordinate {m}
    55.077,                  !- Vertex 3 Y-coordinate {m}
    5.715,                   !- Vertex 3 Z-coordinate {m}
    38.222,                  !- Vertex 4 X-coordinate {m}
    50.963,                  !- Vertex 4 Y-coordinate {m}
    5.715;                   !- Vertex 4 Z-coordinate {m}

BuildingSurface:Detailed,
    M-152-MDF_Srf_0,         !- Name
    Floor,                   !- Surface Type
    Medium Partitions,       !- Construction Name
    M-152-MDF Thermal Zone Thermal Zone,  !- Zone Name
    Adiabatic,               !- Outside Boundary Condition
    ,                        !- Outside Boundary Condition Object
    NoSun,                   !- Sun Exposure
    NoWind,                  !- Wind Exposure
    ,                        !- View Factor to Ground
    ,                        !- Number of Vertices
    50.079,                  !- Vertex 1 X-coordinate {m}
    61.783,                  !- Vertex 1 Y-coordinate {m}
    2.819,                   !- Vertex 1 Z-coordinate {m}
    50.079,                  !- Vertex 2 X-coordinate {m}
    58.095,                  !- Vertex 2 Y-coordinate {m}
    2.819,                   !- Vertex 2 Z-coordinate {m}
    46.651,                  !- Vertex 3 X-coordinate {m}
    58.095,                  !- Vertex 3 Y-coordinate {m}
    2.819,                   !- Vertex 3 Z-coordinate {m}
    46.651,                  !- Vertex 4 X-coordinate {m}
    61.783,                  !- Vertex 4 Y-coordinate {m}
    2.819;                   !- Vertex 4 Z-coordinate {m}

BuildingSurface:Detailed,
    M-152-MDF_Srf_1,         !- Name
    Wall,                    !- Surface Type
    Wall_Exterior,           !- Construction Name
    M-152-MDF Thermal Zone Thermal Zone,  !- Zone Name
    Outdoors,                !- Outside Boundary Condition
    ,                        !- Outside Boundary Condition Object
    SunExposed,              !- Sun Exposure
    WindExposed,             !- Wind Exposure
    ,                        !- View Factor to Ground
    ,                        !- Number of Vertices
    50.079,                  !- Vertex 1 X-coordinate {m}
    61.783,                  !- Vertex 1 Y-coordinate {m}
    5.715,                   !- Vertex 1 Z-coordinate {m}
    50.079,                  !- Vertex 2 X-coordinate {m}
    61.783,                  !- Vertex 2 Y-coordinate {m}
    2.819,                   !- Vertex 2 Z-coordinate {m}
    46.651,                  !- Vertex 3 X-coordinate {m}
    61.783,                  !- Vertex 3 Y-coordinate {m}
    2.819,                   !- Vertex 3 Z-coordinate {m}
    46.651,                  !- Vertex 4 X-coordinate {m}
    61.783,                  !- Vertex 4 Y-coordinate {m}
    5.715;                   !- Vertex 4 Z-coordinate {m}

BuildingSurface:Detailed,
    M-152-MDF_Srf_2,         !- Name
    Wall,                    !- Surface Type
    Hole,                    !- Construction Name
    M-152-MDF Thermal Zone Thermal Zone,  !- Zone Name
    Surface,                 !- Outside Boundary Condition
    M-201-ExgStorage_Srf_3,  !- Outside Boundary Condition Object
    NoSun,                   !- Sun Exposure
    NoWind,                  !- Wind Exposure
    ,                        !- View Factor to Ground
    ,                        !- Number of Vertices
    50.079,                  !- Vertex 1 X-coordinate {m}
    58.095,                  !- Vertex 1 Y-coordinate {m}
    5.715,                   !- Vertex 1 Z-coordinate {m}
    50.079,                  !- Vertex 2 X-coordinate {m}
    58.095,                  !- Vertex 2 Y-coordinate {m}
    2.819,                   !- Vertex 2 Z-coordinate {m}
    50.079,                  !- Vertex 3 X-coordinate {m}
    61.783,                  !- Vertex 3 Y-coordinate {m}
    2.819,                   !- Vertex 3 Z-coordinate {m}
    50.079,                  !- Vertex 4 X-coordinate {m}
    61.783,                  !- Vertex 4 Y-coordinate {m}
    5.715;                   !- Vertex 4 Z-coordinate {m}

BuildingSurface:Detailed,
    M-152-MDF_Srf_3,         !- Name
    Wall,                    !- Surface Type
    Hole,                    !- Construction Name
    M-152-MDF Thermal Zone Thermal Zone,  !- Zone Name
    Surface,                 !- Outside Boundary Condition
    M-201-ExgStorage_Srf_2,  !- Outside Boundary Condition Object
    NoSun,                   !- Sun Exposure
    NoWind,                  !- Wind Exposure
    ,                        !- View Factor to Ground
    ,                        !- Number of Vertices
    46.651,                  !- Vertex 1 X-coordinate {m}
    58.095,                  !- Vertex 1 Y-coordinate {m}
    5.715,                   !- Vertex 1 Z-coordinate {m}
    46.651,                  !- Vertex 2 X-coordinate {m}
    58.095,                  !- Vertex 2 Y-coordinate {m}
    2.819,                   !- Vertex 2 Z-coordinate {m}
    50.079,                  !- Vertex 3 X-coordinate {m}
    58.095,                  !- Vertex 3 Y-coordinate {m}
    2.819,                   !- Vertex 3 Z-coordinate {m}
    50.079,                  !- Vertex 4 X-coordinate {m}
    58.095,                  !- Vertex 4 Y-coordinate {m}
    5.715;                   !- Vertex 4 Z-coordinate {m}

BuildingSurface:Detailed,
    M-152-MDF_Srf_4,         !- Name
    Wall,                    !- Surface Type
    Hole,                    !- Construction Name
    M-152-MDF Thermal Zone Thermal Zone,  !- Zone Name
    Surface,                 !- Outside Boundary Condition
    M-201-ExgStorage_Srf_1,  !- Outside Boundary Condition Object
    NoSun,                   !- Sun Exposure
    NoWind,                  !- Wind Exposure
    ,                        !- View Factor to Ground
    ,                        !- Number of Vertices
    46.651,                  !- Vertex 1 X-coordinate {m}
    61.783,                  !- Vertex 1 Y-coordinate {m}
    5.715,                   !- Vertex 1 Z-coordinate {m}
    46.651,                  !- Vertex 2 X-coordinate {m}
    61.783,                  !- Vertex 2 Y-coordinate {m}
    2.819,                   !- Vertex 2 Z-coordinate {m}
    46.651,                  !- Vertex 3 X-coordinate {m}
    58.095,                  !- Vertex 3 Y-coordinate {m}
    2.819,                   !- Vertex 3 Z-coordinate {m}
    46.651,                  !- Vertex 4 X-coordinate {m}
    58.095,                  !- Vertex 4 Y-coordinate {m}
    5.715;                   !- Vertex 4 Z-coordinate {m}

BuildingSurface:Detailed,
    M-152-MDF_Srf_5,         !- Name
    Ceiling,                 !- Surface Type
    Medium Partitions,       !- Construction Name
    M-152-MDF Thermal Zone Thermal Zone,  !- Zone Name
    Adiabatic,               !- Outside Boundary Condition
    ,                        !- Outside Boundary Condition Object
    NoSun,                   !- Sun Exposure
    NoWind,                  !- Wind Exposure
    ,                        !- View Factor to Ground
    ,                        !- Number of Vertices
    50.079,                  !- Vertex 1 X-coordinate {m}
    58.095,                  !- Vertex 1 Y-coordinate {m}
    5.715,                   !- Vertex 1 Z-coordinate {m}
    50.079,                  !- Vertex 2 X-coordinate {m}
    61.783,                  !- Vertex 2 Y-coordinate {m}
    5.715,                   !- Vertex 2 Z-coordinate {m}
    46.651,                  !- Vertex 3 X-coordinate {m}
    61.783,                  !- Vertex 3 Y-coordinate {m}
    5.715,                   !- Vertex 3 Z-coordinate {m}
    46.651,                  !- Vertex 4 X-coordinate {m}
    58.095,                  !- Vertex 4 Y-coordinate {m}
    5.715;                   !- Vertex 4 Z-coordinate {m}

BuildingSurface:Detailed,
    M-153-CashRoom_Srf_0,    !- Name
    Floor,                   !- Surface Type
    Medium Partitions,       !- Construction Name
    M-153-CashRoom Thermal Zone Thermal Zone,  !- Zone Name
    Adiabatic,               !- Outside Boundary Condition
    ,                        !- Outside Boundary Condition Object
    NoSun,                   !- Sun Exposure
    NoWind,                  !- Wind Exposure
    ,                        !- View Factor to Ground
    ,                        !- Number of Vertices
    45.041,                  !- Vertex 1 X-coordinate {m}
    54.437,                  !- Vertex 1 Y-coordinate {m}
    2.819,                   !- Vertex 1 Z-coordinate {m}
    45.041,                  !- Vertex 2 X-coordinate {m}
    50.963,                  !- Vertex 2 Y-coordinate {m}
    2.819,                   !- Vertex 2 Z-coordinate {m}
    42.552,                  !- Vertex 3 X-coordinate {m}
    50.963,                  !- Vertex 3 Y-coordinate {m}
    2.819,                   !- Vertex 3 Z-coordinate {m}
    42.552,                  !- Vertex 4 X-coordinate {m}
    54.437,                  !- Vertex 4 Y-coordinate {m}
    2.819;                   !- Vertex 4 Z-coordinate {m}

BuildingSurface:Detailed,
    M-153-CashRoom_Srf_1,    !- Name
    Wall,                    !- Surface Type
    Hole,                    !- Construction Name
    M-153-CashRoom Thermal Zone Thermal Zone,  !- Zone Name
    Surface,                 !- Outside Boundary Condition
    M-201-ExgStorage_Srf_15, !- Outside Boundary Condition Object
    NoSun,                   !- Sun Exposure
    NoWind,                  !- Wind Exposure
    ,                        !- View Factor to Ground
    ,                        !- Number of Vertices
    42.552,                  !- Vertex 1 X-coordinate {m}
    54.437,                  !- Vertex 1 Y-coordinate {m}
    5.715,                   !- Vertex 1 Z-coordinate {m}
    42.552,                  !- Vertex 2 X-coordinate {m}
    54.437,                  !- Vertex 2 Y-coordinate {m}
    2.819,                   !- Vertex 2 Z-coordinate {m}
    42.552,                  !- Vertex 3 X-coordinate {m}
    50.963,                  !- Vertex 3 Y-coordinate {m}
    2.819,                   !- Vertex 3 Z-coordinate {m}
    42.552,                  !- Vertex 4 X-coordinate {m}
    50.963,                  !- Vertex 4 Y-coordinate {m}
    5.715;                   !- Vertex 4 Z-coordinate {m}

BuildingSurface:Detailed,
    M-153-CashRoom_Srf_2,    !- Name
    Wall,                    !- Surface Type
    Hole,                    !- Construction Name
    M-153-CashRoom Thermal Zone Thermal Zone,  !- Zone Name
    Surface,                 !- Outside Boundary Condition
    M-201-ExgStorage_Srf_14, !- Outside Boundary Condition Object
    NoSun,                   !- Sun Exposure
    NoWind,                  !- Wind Exposure
    ,                        !- View Factor to Ground
    ,                        !- Number of Vertices
    45.041,                  !- Vertex 1 X-coordinate {m}
    54.437,                  !- Vertex 1 Y-coordinate {m}
    5.715,                   !- Vertex 1 Z-coordinate {m}
    45.041,                  !- Vertex 2 X-coordinate {m}
    54.437,                  !- Vertex 2 Y-coordinate {m}
    2.819,                   !- Vertex 2 Z-coordinate {m}
    42.552,                  !- Vertex 3 X-coordinate {m}
    54.437,                  !- Vertex 3 Y-coordinate {m}
    2.819,                   !- Vertex 3 Z-coordinate {m}
    42.552,                  !- Vertex 4 X-coordinate {m}
    54.437,                  !- Vertex 4 Y-coordinate {m}
    5.715;                   !- Vertex 4 Z-coordinate {m}

BuildingSurface:Detailed,
    M-153-CashRoom_Srf_3,    !- Name
    Wall,                    !- Surface Type
    Hole,                    !- Construction Name
    M-153-CashRoom Thermal Zone Thermal Zone,  !- Zone Name
    Surface,                 !- Outside Boundary Condition
    M-154-ExgOffice_Srf_3,   !- Outside Boundary Condition Object
    NoSun,                   !- Sun Exposure
    NoWind,                  !- Wind Exposure
    ,                        !- View Factor to Ground
    ,                        !- Number of Vertices
    45.041,                  !- Vertex 1 X-coordinate {m}
    50.963,                  !- Vertex 1 Y-coordinate {m}
    5.715,                   !- Vertex 1 Z-coordinate {m}
    45.041,                  !- Vertex 2 X-coordinate {m}
    50.963,                  !- Vertex 2 Y-coordinate {m}
    2.819,                   !- Vertex 2 Z-coordinate {m}
    45.041,                  !- Vertex 3 X-coordinate {m}
    54.437,                  !- Vertex 3 Y-coordinate {m}
    2.819,                   !- Vertex 3 Z-coordinate {m}
    45.041,                  !- Vertex 4 X-coordinate {m}
    54.437,                  !- Vertex 4 Y-coordinate {m}
    5.715;                   !- Vertex 4 Z-coordinate {m}

BuildingSurface:Detailed,
    M-153-CashRoom_Srf_4,    !- Name
    Wall,                    !- Surface Type
    Wall_Exterior,           !- Construction Name
    M-153-CashRoom Thermal Zone Thermal Zone,  !- Zone Name
    Outdoors,                !- Outside Boundary Condition
    ,                        !- Outside Boundary Condition Object
    SunExposed,              !- Sun Exposure
    WindExposed,             !- Wind Exposure
    ,                        !- View Factor to Ground
    ,                        !- Number of Vertices
    42.552,                  !- Vertex 1 X-coordinate {m}
    50.963,                  !- Vertex 1 Y-coordinate {m}
    5.715,                   !- Vertex 1 Z-coordinate {m}
    42.552,                  !- Vertex 2 X-coordinate {m}
    50.9630000002001,        !- Vertex 2 Y-coordinate {m}
    3.42462225443118,        !- Vertex 2 Z-coordinate {m}
    45.041,                  !- Vertex 3 X-coordinate {m}
    50.9629999997657,        !- Vertex 3 Y-coordinate {m}
    3.77254736771614,        !- Vertex 3 Z-coordinate {m}
    45.041,                  !- Vertex 4 X-coordinate {m}
    50.963,                  !- Vertex 4 Y-coordinate {m}
    5.715;                   !- Vertex 4 Z-coordinate {m}

BuildingSurface:Detailed,
    M-153-CashRoom_Srf_4 1,  !- Name
    Wall,                    !- Surface Type
    Medium Partitions,       !- Construction Name