!-Generator IDFEditor 1.48
!-Option SortedOrder

!-NOTE: All comments with '!-' are ignored by the IDFEditor and are generated automatically.
!-      Use '!' comments if they need to be retained when using the IDFEditor.


!-   ===========  ALL OBJECTS IN CLASS: VERSION ===========

Version,
    8.6;                     !- Version Identifier


!-   ===========  ALL OBJECTS IN CLASS: GLOBALGEOMETRYRULES ===========

GlobalGeometryRules,
    LowerLeftCorner,         !- Starting Vertex Position
    CounterClockWise,        !- Vertex Entry Direction
    Relative,                !- Coordinate System
    Relative,                !- Daylighting Reference Point Coordinate System
    Relative;                !- Rectangular Surface Coordinate System


!-   ===========  ALL OBJECTS IN CLASS: ZONE ===========

Zone,
    L1S1-DairyCooler,        !- Name
    0,                       !- Direction of Relative North {deg}
    0.0,                     !- X Origin {m}
    0.0,                     !- Y Origin {m}
    0.0,                     !- Z Origin {m}
    1;                       !- Type

Zone,
    L1S1-Stairs,             !- Name
    0,                       !- Direction of Relative North {deg}
    0.0,                     !- X Origin {m}
    0.0,                     !- Y Origin {m}
    0.0,                     !- Z Origin {m}
    1;                       !- Type

Zone,
    L1S1-Corridor,           !- Name
    0,                       !- Direction of Relative North {deg}
    0.0,                     !- X Origin {m}
    0.0,                     !- Y Origin {m}
    0.0,                     !- Z Origin {m}
    1;                       !- Type

Zone,
    L1S1-DeliCooler,         !- Name
    0,                       !- Direction of Relative North {deg}
    0.0,                     !- X Origin {m}
    0.0,                     !- Y Origin {m}
    0.0,                     !- Z Origin {m}
    1;                       !- Type

Zone,
    L1S1-Women,              !- Name
    0,                       !- Direction of Relative North {deg}
    0.0,                     !- X Origin {m}
    0.0,                     !- Y Origin {m}
    0.0,                     !- Z Origin {m}
    1;                       !- Type

Zone,
    L1S1-Men,                !- Name
    0,                       !- Direction of Relative North {deg}
    0.0,                     !- X Origin {m}
    0.0,                     !- Y Origin {m}
    0.0,                     !- Z Origin {m}
    1;                       !- Type

Zone,
    L1S1-MeatSeafoodCooler,  !- Name
    0,                       !- Direction of Relative North {deg}
    0.0,                     !- X Origin {m}
    0.0,                     !- Y Origin {m}
    0.0,                     !- Z Origin {m}
    1;                       !- Type

Zone,
    L1S1-Backstock,          !- Name
    0,                       !- Direction of Relative North {deg}
    0.0,                     !- X Origin {m}
    0.0,                     !- Y Origin {m}
    0.0,                     !- Z Origin {m}
    1;                       !- Type

Zone,
    L1S1-BeerCage,           !- Name
    0,                       !- Direction of Relative North {deg}
    0.0,                     !- X Origin {m}
    0.0,                     !- Y Origin {m}
    0.0,                     !- Z Origin {m}
    1;                       !- Type

Zone,
    L1S2-LoadingBOH,         !- Name
    0,                       !- Direction of Relative North {deg}
    0.0,                     !- X Origin {m}
    0.0,                     !- Y Origin {m}
    0.0,                     !- Z Origin {m}
    1;                       !- Type

Zone,
    L1S2-Shaft,              !- Name
    0,                       !- Direction of Relative North {deg}
    0.0,                     !- X Origin {m}
    0.0,                     !- Y Origin {m}
    0.0,                     !- Z Origin {m}
    1;                       !- Type

Zone,
    L1S2-Checkout,           !- Name
    0,                       !- Direction of Relative North {deg}
    0.0,                     !- X Origin {m}
    0.0,                     !- Y Origin {m}
    0.0,                     !- Z Origin {m}
    1;                       !- Type

Zone,
    L1S2-Shaft2,             !- Name
    0,                       !- Direction of Relative North {deg}
    0.0,                     !- X Origin {m}
    0.0,                     !- Y Origin {m}
    0.0,                     !- Z Origin {m}
    1;                       !- Type

Zone,
    L1S2-Bakery,             !- Name
    0,                       !- Direction of Relative North {deg}
    0.0,                     !- X Origin {m}
    0.0,                     !- Y Origin {m}
    0.0,                     !- Z Origin {m}
    1;                       !- Type

Zone,
    L1S2-ReachInPrepared,    !- Name
    0,                       !- Direction of Relative North {deg}
    0.0,                     !- X Origin {m}
    0.0,                     !- Y Origin {m}
    0.0,                     !- Z Origin {m}
    1;                       !- Type

Zone,
    L1S1-PreparedFoodsPrep,  !- Name
    0,                       !- Direction of Relative North {deg}
    0.0,                     !- X Origin {m}
    0.0,                     !- Y Origin {m}
    0.0,                     !- Z Origin {m}
    1;                       !- Type

Zone,
    L1S1-Shaft,              !- Name
    0,                       !- Direction of Relative North {deg}
    0.0,                     !- X Origin {m}
    0.0,                     !- Y Origin {m}
    0.0,                     !- Z Origin {m}
    1;                       !- Type

Zone,
    L1S2-AislesWest,         !- Name
    0,                       !- Direction of Relative North {deg}
    0.0,                     !- X Origin {m}
    0.0,                     !- Y Origin {m}
    0.0,                     !- Z Origin {m}
    1;                       !- Type

Zone,
    L1S2-AislesEast,         !- Name
    0,                       !- Direction of Relative North {deg}
    0.0,                     !- X Origin {m}
    0.0,                     !- Y Origin {m}
    0.0,                     !- Z Origin {m}
    1;                       !- Type

Zone,
    L1S1-Loading,            !- Name
    0,                       !- Direction of Relative North {deg}
    0.0,                     !- X Origin {m}
    0.0,                     !- Y Origin {m}
    0.0,                     !- Z Origin {m}
    1;                       !- Type

Zone,
    L1S1-Produce,            !- Name
    0,                       !- Direction of Relative North {deg}
    0.0,                     !- X Origin {m}
    0.0,                     !- Y Origin {m}
    0.0,                     !- Z Origin {m}
    1;                       !- Type

Zone,
    L1S1-SalesRefrigerationReachInDairy2,  !- Name
    0,                       !- Direction of Relative North {deg}
    0.0,                     !- X Origin {m}
    0.0,                     !- Y Origin {m}
    0.0,                     !- Z Origin {m}
    1;                       !- Type

Zone,
    L1S1-SalesAisle1,        !- Name
    0,                       !- Direction of Relative North {deg}
    0.0,                     !- X Origin {m}
    0.0,                     !- Y Origin {m}
    0.0,                     !- Z Origin {m}
    1;                       !- Type

Zone,
    L1S1-Checkout,           !- Name
    0,                       !- Direction of Relative North {deg}
    0.0,                     !- X Origin {m}
    0.0,                     !- Y Origin {m}
    0.0,                     !- Z Origin {m}
    1;                       !- Type

Zone,
    L1S1-Coffee,             !- Name
    0,                       !- Direction of Relative North {deg}
    0.0,                     !- X Origin {m}
    0.0,                     !- Y Origin {m}
    0.0,                     !- Z Origin {m}
    1;                       !- Type

Zone,
    L1S1-SalesRefrigerationReachPrepared,  !- Name
    0,                       !- Direction of Relative North {deg}
    0.0,                     !- X Origin {m}
    0.0,                     !- Y Origin {m}
    0.0,                     !- Z Origin {m}
    1;                       !- Type

Zone,
    L1S1-SeafoodSurface,     !- Name
    0,                       !- Direction of Relative North {deg}
    0.0,                     !- X Origin {m}
    0.0,                     !- Y Origin {m}
    0.0,                     !- Z Origin {m}
    1;                       !- Type

Zone,
    L1S1-PreparedFoods,      !- Name
    0,                       !- Direction of Relative North {deg}
    0.0,                     !- X Origin {m}
    0.0,                     !- Y Origin {m}
    0.0,                     !- Z Origin {m}
    1;                       !- Type

Zone,
    L1S1-SpecialtyService,   !- Name
    0,                       !- Direction of Relative North {deg}
    0.0,                     !- X Origin {m}
    0.0,                     !- Y Origin {m}
    0.0,                     !- Z Origin {m}
    1;                       !- Type

Zone,
    L1S1-SalesSouth,         !- Name
    0,                       !- Direction of Relative North {deg}
    0.0,                     !- X Origin {m}
    0.0,                     !- Y Origin {m}
    0.0,                     !- Z Origin {m}
    1;                       !- Type

Zone,
    L1S1-SalesAisle4,        !- Name
    0,                       !- Direction of Relative North {deg}
    0.0,                     !- X Origin {m}
    0.0,                     !- Y Origin {m}
    0.0,                     !- Z Origin {m}
    1;                       !- Type

Zone,
    L1S1-SalesRefrigerationAisle6,  !- Name
    0,                       !- Direction of Relative North {deg}
    0.0,                     !- X Origin {m}
    0.0,                     !- Y Origin {m}
    0.0,                     !- Z Origin {m}
    1;                       !- Type

Zone,
    L1S1-SalesNorth,         !- Name
    0,                       !- Direction of Relative North {deg}
    0.0,                     !- X Origin {m}
    0.0,                     !- Y Origin {m}
    0.0,                     !- Z Origin {m}
    1;                       !- Type

Zone,
    M-154-ExgOffice,         !- Name
    0,                       !- Direction of Relative North {deg}
    0.0,                     !- X Origin {m}
    0.0,                     !- Y Origin {m}
    0.0,                     !- Z Origin {m}
    1;                       !- Type

Zone,
    M-201-ExgStorage,        !- Name
    0,                       !- Direction of Relative North {deg}
    0.0,                     !- X Origin {m}
    0.0,                     !- Y Origin {m}
    0.0,                     !- Z Origin {m}
    1;                       !- Type

Zone,
    L2-201-Stairs1,          !- Name
    0,                       !- Direction of Relative North {deg}
    0.0,                     !- X Origin {m}
    0.0,                     !- Y Origin {m}
    0.0,                     !- Z Origin {m}
    1;                       !- Type

Zone,
    L2-205-RefrigerationEquipmentRoomUpper,  !- Name
    0,                       !- Direction of Relative North {deg}
    0.0,                     !- X Origin {m}
    0.0,                     !- Y Origin {m}
    0.0,                     !- Z Origin {m}
    1;                       !- Type

Zone,
    M-123-Stairs,            !- Name
    0,                       !- Direction of Relative North {deg}
    0.0,                     !- X Origin {m}
    0.0,                     !- Y Origin {m}
    0.0,                     !- Z Origin {m}
    1;                       !- Type

Zone,
    M-163-MeatPrep,          !- Name
    0,                       !- Direction of Relative North {deg}
    0.0,                     !- X Origin {m}
    0.0,                     !- Y Origin {m}
    0.0,                     !- Z Origin {m}
    1;                       !- Type

Zone,
    M-152-MDF,               !- Name
    0,                       !- Direction of Relative North {deg}
    0.0,                     !- X Origin {m}
    0.0,                     !- Y Origin {m}
    0.0,                     !- Z Origin {m}
    1;                       !- Type

Zone,
    M-159-ExgVest,           !- Name
    0,                       !- Direction of Relative North {deg}
    0.0,                     !- X Origin {m}
    0.0,                     !- Y Origin {m}
    0.0,                     !- Z Origin {m}
    1;                       !- Type

Zone,
    M-161-Men,               !- Name
    0,                       !- Direction of Relative North {deg}
    0.0,                     !- X Origin {m}
    0.0,                     !- Y Origin {m}
    0.0,                     !- Z Origin {m}
    1;                       !- Type

Zone,
    L2-201-ExgStorage,       !- Name
    0,                       !- Direction of Relative North {deg}
    0.0,                     !- X Origin {m}
    0.0,                     !- Y Origin {m}
    0.0,                     !- Z Origin {m}
    1;                       !- Type

Zone,
    L2-201-Storage,          !- Name
    0,                       !- Direction of Relative North {deg}
    0.0,                     !- X Origin {m}
    0.0,                     !- Y Origin {m}
    0.0,                     !- Z Origin {m}
    1;                       !- Type

Zone,
    L2-201-Walkins,          !- Name
    0,                       !- Direction of Relative North {deg}
    0.0,                     !- X Origin {m}
    0.0,                     !- Y Origin {m}
    0.0,                     !- Z Origin {m}
    1;                       !- Type

Zone,
    L2-201-Corridor,         !- Name
    0,                       !- Direction of Relative North {deg}
    0.0,                     !- X Origin {m}
    0.0,                     !- Y Origin {m}
    0.0,                     !- Z Origin {m}
    1;                       !- Type

Zone,
    L2-205-RefrigerationEquipmentRoomLower,  !- Name
    0,                       !- Direction of Relative North {deg}
    0.0,                     !- X Origin {m}
    0.0,                     !- Y Origin {m}
    0.0,                     !- Z Origin {m}
    1;                       !- Type

Zone,
    M-164-MeatCooler,        !- Name
    0,                       !- Direction of Relative North {deg}
    0.0,                     !- X Origin {m}
    0.0,                     !- Y Origin {m}
    0.0,                     !- Z Origin {m}
    1;                       !- Type

Zone,
    M-BakeryFreezer,         !- Name
    0,                       !- Direction of Relative North {deg}
    0.0,                     !- X Origin {m}
    0.0,                     !- Y Origin {m}
    0.0,                     !- Z Origin {m}
    1;                       !- Type

Zone,
    M-162-PrepRoom,          !- Name
    0,                       !- Direction of Relative North {deg}
    0.0,                     !- X Origin {m}
    0.0,                     !- Y Origin {m}
    0.0,                     !- Z Origin {m}
    1;                       !- Type

Zone,
    M-ExgWomen,              !- Name
    0,                       !- Direction of Relative North {deg}
    0.0,                     !- X Origin {m}
    0.0,                     !- Y Origin {m}
    0.0,                     !- Z Origin {m}
    1;                       !- Type

Zone,
    M-158-BreakRoom,         !- Name
    0,                       !- Direction of Relative North {deg}
    0.0,                     !- X Origin {m}
    0.0,                     !- Y Origin {m}
    0.0,                     !- Z Origin {m}
    1;                       !- Type

Zone,
    M-157-ExgOffice,         !- Name
    0,                       !- Direction of Relative North {deg}
    0.0,                     !- X Origin {m}
    0.0,                     !- Y Origin {m}
    0.0,                     !- Z Origin {m}
    1;                       !- Type

Zone,
    M-156-StlOffice,         !- Name
    0,                       !- Direction of Relative North {deg}
    0.0,                     !- X Origin {m}
    0.0,                     !- Y Origin {m}
    0.0,                     !- Z Origin {m}
    1;                       !- Type

Zone,
    M-155-ExgOffice,         !- Name
    0,                       !- Direction of Relative North {deg}
    0.0,                     !- X Origin {m}
    0.0,                     !- Y Origin {m}
    0.0,                     !- Z Origin {m}
    1;                       !- Type

Zone,
    M-153-CashRoom,          !- Name
    0,                       !- Direction of Relative North {deg}
    0.0,                     !- X Origin {m}
    0.0,                     !- Y Origin {m}
    0.0,                     !- Z Origin {m}
    1;                       !- Type

Zone,
    M-151-Stairs1,           !- Name
    0,                       !- Direction of Relative North {deg}
    0.0,                     !- X Origin {m}
    0.0,                     !- Y Origin {m}
    0.0,                     !- Z Origin {m}
    1;                       !- Type

Zone,
    L1-106-Receiving,        !- Name
    0,                       !- Direction of Relative North {deg}
    0.0,                     !- X Origin {m}
    0.0,                     !- Y Origin {m}
    0.0,                     !- Z Origin {m}
    1;                       !- Type

Zone,
    L1-112-DairyCooler,      !- Name
    0,                       !- Direction of Relative North {deg}
    0.0,                     !- X Origin {m}
    0.0,                     !- Y Origin {m}
    0.0,                     !- Z Origin {m}
    1;                       !- Type

Zone,
    L1-Stairs,               !- Name
    0,                       !- Direction of Relative North {deg}
    0.0,                     !- X Origin {m}
    0.0,                     !- Y Origin {m}
    0.0,                     !- Z Origin {m}
    1;                       !- Type

Zone,
    L1-110-ProducePrep,      !- Name
    0,                       !- Direction of Relative North {deg}
    0.0,                     !- X Origin {m}
    0.0,                     !- Y Origin {m}
    0.0,                     !- Z Origin {m}
    1;                       !- Type

Zone,
    L1-109-Corridor,         !- Name
    0,                       !- Direction of Relative North {deg}
    0.0,                     !- X Origin {m}
    0.0,                     !- Y Origin {m}
    0.0,                     !- Z Origin {m}
    1;                       !- Type

Zone,
    L1-123-Stairs,           !- Name
    0,                       !- Direction of Relative North {deg}
    0.0,                     !- X Origin {m}
    0.0,                     !- Y Origin {m}
    0.0,                     !- Z Origin {m}
    1;                       !- Type

Zone,
    L1-122-Corridor,         !- Name
    0,                       !- Direction of Relative North {deg}
    0.0,                     !- X Origin {m}
    0.0,                     !- Y Origin {m}
    0.0,                     !- Z Origin {m}
    1;                       !- Type

Zone,
    L1-120-Women,            !- Name
    0,                       !- Direction of Relative North {deg}
    0.0,                     !- X Origin {m}
    0.0,                     !- Y Origin {m}
    0.0,                     !- Z Origin {m}
    1;                       !- Type

Zone,
    L1-118-PreparedFoodsPrep,!- Name
    0,                       !- Direction of Relative North {deg}
    0.0,                     !- X Origin {m}
    0.0,                     !- Y Origin {m}
    0.0,                     !- Z Origin {m}
    1;                       !- Type

Zone,
    L1-121-Men,              !- Name
    0,                       !- Direction of Relative North {deg}
    0.0,                     !- X Origin {m}
    0.0,                     !- Y Origin {m}
    0.0,                     !- Z Origin {m}
    1;                       !- Type

Zone,
    L1-115-MeatSeafoodCooler,!- Name
    0,                       !- Direction of Relative North {deg}
    0.0,                     !- X Origin {m}
    0.0,                     !- Y Origin {m}
    0.0,                     !- Z Origin {m}
    1;                       !- Type

Zone,
    L1-104-ProduceCoolers2,  !- Name
    0,                       !- Direction of Relative North {deg}
    0.0,                     !- X Origin {m}
    0.0,                     !- Y Origin {m}
    0.0,                     !- Z Origin {m}
    1;                       !- Type

Zone,
    L1-101-SalesRefrigerationReachInDairy1,  !- Name
    0,                       !- Direction of Relative North {deg}
    0.0,                     !- X Origin {m}
    0.0,                     !- Y Origin {m}
    0.0,                     !- Z Origin {m}
    1;                       !- Type

Zone,
    L1-101-SalesCirculation9,!- Name
    0,                       !- Direction of Relative North {deg}
    0.0,                     !- X Origin {m}
    0.0,                     !- Y Origin {m}
    0.0,                     !- Z Origin {m}
    1;                       !- Type

Zone,
    L1-101-SalesCirculation8,!- Name
    0,                       !- Direction of Relative North {deg}
    0.0,                     !- X Origin {m}
    0.0,                     !- Y Origin {m}
    0.0,                     !- Z Origin {m}
    1;                       !- Type

Zone,
    L1-101-SalesCirculation5,!- Name
    0,                       !- Direction of Relative North {deg}
    0.0,                     !- X Origin {m}
    0.0,                     !- Y Origin {m}
    0.0,                     !- Z Origin {m}
    1;                       !- Type

Zone,
    L1-101-SalesRefrigerationReachInPrepared,  !- Name
    0,                       !- Direction of Relative North {deg}
    0.0,                     !- X Origin {m}
    0.0,                     !- Y Origin {m}
    0.0,                     !- Z Origin {m}
    1;                       !- Type

Zone,
    L1-101-SalesRefrigerationReachInChees,  !- Name
    0,                       !- Direction of Relative North {deg}
    0.0,                     !- X Origin {m}
    0.0,                     !- Y Origin {m}
    0.0,                     !- Z Origin {m}
    1;                       !- Type

Zone,
    L1-101-SalesCirculation1,!- Name
    0,                       !- Direction of Relative North {deg}
    0.0,                     !- X Origin {m}
    0.0,                     !- Y Origin {m}
    0.0,                     !- Z Origin {m}
    1;                       !- Type

Zone,
    L1-101-SalesCirculation3,!- Name
    0,                       !- Direction of Relative North {deg}
    0.0,                     !- X Origin {m}
    0.0,                     !- Y Origin {m}
    0.0,                     !- Z Origin {m}
    1;                       !- Type

Zone,
    L1-101-SalesRefrigerationReachInDairy3,  !- Name
    0,                       !- Direction of Relative North {deg}
    0.0,                     !- X Origin {m}
    0.0,                     !- Y Origin {m}
    0.0,                     !- Z Origin {m}
    1;                       !- Type

Zone,
    L1-101-SalesAisleBulk,   !- Name
    0,                       !- Direction of Relative North {deg}
    0.0,                     !- X Origin {m}
    0.0,                     !- Y Origin {m}
    0.0,                     !- Z Origin {m}
    1;                       !- Type

Zone,
    L1-101-SalesRefrigerationReachInDairy2,  !- Name
    0,                       !- Direction of Relative North {deg}
    0.0,                     !- X Origin {m}
    0.0,                     !- Y Origin {m}
    0.0,                     !- Z Origin {m}
    1;                       !- Type

Zone,
    L1-101-SalesAisle2,      !- Name
    0,                       !- Direction of Relative North {deg}
    0.0,                     !- X Origin {m}
    0.0,                     !- Y Origin {m}
    0.0,                     !- Z Origin {m}
    1;                       !- Type

Zone,
    L1-101-SalesRefrigerationAisle5,  !- Name
    0,                       !- Direction of Relative North {deg}
    0.0,                     !- X Origin {m}
    0.0,                     !- Y Origin {m}
    0.0,                     !- Z Origin {m}
    1;                       !- Type

Zone,
    L1-101-SalesCirculation4,!- Name
    0,                       !- Direction of Relative North {deg}
    0.0,                     !- X Origin {m}
    0.0,                     !- Y Origin {m}
    0.0,                     !- Z Origin {m}
    1;                       !- Type

Zone,
    L1-101-SalesAisle8,      !- Name
    0,                       !- Direction of Relative North {deg}
    0.0,                     !- X Origin {m}
    0.0,                     !- Y Origin {m}
    0.0,                     !- Z Origin {m}
    1;                       !- Type

Zone,
    L1-101-SalesAisle7,      !- Name
    0,                       !- Direction of Relative North {deg}
    0.0,                     !- X Origin {m}
    0.0,                     !- Y Origin {m}
    0.0,                     !- Z Origin {m}
    1;                       !- Type

Zone,
    L1-101-SalesAisle6,      !- Name
    0,                       !- Direction of Relative North {deg}
    0.0,                     !- X Origin {m}
    0.0,                     !- Y Origin {m}
    0.0,                     !- Z Origin {m}
    1;                       !- Type

Zone,
    L1-101-SalesAisle5,      !- Name
    0,                       !- Direction of Relative North {deg}
    0.0,                     !- X Origin {m}
    0.0,                     !- Y Origin {m}
    0.0,                     !- Z Origin {m}
    1;                       !- Type

Zone,
    L1-101-SalesAisle4,      !- Name
    0,                       !- Direction of Relative North {deg}
    0.0,                     !- X Origin {m}
    0.0,                     !- Y Origin {m}
    0.0,                     !- Z Origin {m}
    1;                       !- Type

Zone,
    L1-101-SalesCirculation2,!- Name
    0,                       !- Direction of Relative North {deg}
    0.0,                     !- X Origin {m}
    0.0,                     !- Y Origin {m}
    0.0,                     !- Z Origin {m}
    1;                       !- Type

Zone,
    L1-101-SalesRefrigerationAisle1,  !- Name
    0,                       !- Direction of Relative North {deg}
    0.0,                     !- X Origin {m}
    0.0,                     !- Y Origin {m}
    0.0,                     !- Z Origin {m}
    1;                       !- Type

Zone,
    L1-101-SalesRefrigerationEndcap1,  !- Name
    0,                       !- Direction of Relative North {deg}
    0.0,                     !- X Origin {m}
    0.0,                     !- Y Origin {m}
    0.0,                     !- Z Origin {m}
    1;                       !- Type

Zone,
    L1-101-SalesRefrigerationAisle2,  !- Name
    0,                       !- Direction of Relative North {deg}
    0.0,                     !- X Origin {m}
    0.0,                     !- Y Origin {m}
    0.0,                     !- Z Origin {m}
    1;                       !- Type

Zone,
    L1-101-SalesRefrigerationAisle3,  !- Name
    0,                       !- Direction of Relative North {deg}
    0.0,                     !- X Origin {m}
    0.0,                     !- Y Origin {m}
    0.0,                     !- Z Origin {m}
    1;                       !- Type

Zone,
    L1-101-SalesRefrigerationAisle4,  !- Name
    0,                       !- Direction of Relative North {deg}
    0.0,                     !- X Origin {m}
    0.0,                     !- Y Origin {m}
    0.0,                     !- Z Origin {m}
    1;                       !- Type

Zone,
    L1-101-SalesAisle9,      !- Name
    0,                       !- Direction of Relative North {deg}
    0.0,                     !- X Origin {m}
    0.0,                     !- Y Origin {m}
    0.0,                     !- Z Origin {m}
    1;                       !- Type

Zone,
    L1-101-SalesRefrigerationAisle7,  !- Name
    0,                       !- Direction of Relative North {deg}
    0.0,                     !- X Origin {m}
    0.0,                     !- Y Origin {m}
    0.0,                     !- Z Origin {m}
    1;                       !- Type

Zone,
    L1-101-SalesAisle10,     !- Name
    0,                       !- Direction of Relative North {deg}
    0.0,                     !- X Origin {m}
    0.0,                     !- Y Origin {m}
    0.0,                     !- Z Origin {m}
    1;                       !- Type

Zone,
    L1-101-SalesCirculation7,!- Name
    0,                       !- Direction of Relative North {deg}
    0.0,                     !- X Origin {m}
    0.0,                     !- Y Origin {m}
    0.0,                     !- Z Origin {m}
    1;                       !- Type

Zone,
    L1-125-PreparedFoods2,   !- Name
    0,                       !- Direction of Relative North {deg}
    0.0,                     !- X Origin {m}
    0.0,                     !- Y Origin {m}
    0.0,                     !- Z Origin {m}
    1;                       !- Type

Zone,
    L1-125-PreparedFoods1,   !- Name
    0,                       !- Direction of Relative North {deg}
    0.0,                     !- X Origin {m}
    0.0,                     !- Y Origin {m}
    0.0,                     !- Z Origin {m}
    1;                       !- Type

Zone,
    L1-101-SalesRefrigerationAisle6,  !- Name
    0,                       !- Direction of Relative North {deg}
    0.0,                     !- X Origin {m}
    0.0,                     !- Y Origin {m}
    0.0,                     !- Z Origin {m}
    1;                       !- Type

Zone,
    L1-104-ProduceCirculation,  !- Name
    0,                       !- Direction of Relative North {deg}
    0.0,                     !- X Origin {m}
    0.0,                     !- Y Origin {m}
    0.0,                     !- Z Origin {m}
    1;                       !- Type

Zone,
    L1-101-SalesRefrigerationReachInBeverages,  !- Name
    0,                       !- Direction of Relative North {deg}
    0.0,                     !- X Origin {m}