!-   ===========  ALL OBJECTS IN CLASS: VERSION ===========

Version,
    8.6;                     !- Version Identifier
	

!-   ===========  ALL OBJECTS IN CLASS: ZONE ===========

Zone,
    L1-101-EntranceExit Thermal Zone,  !- Name
    0,                       !- Direction of Relative North {deg}
    0,                       !- X Origin {m}
    0,                       !- Y Origin {m}
    0;                       !- Z Origin {m}

Zone,
    L1-101-SalesAisle1 Thermal Zone,  !- Name
    0,                       !- Direction of Relative North {deg}
    0,                       !- X Origin {m}
    0,                       !- Y Origin {m}
    0;                       !- Z Origin {m}

Zone,
    L1-101-SalesAisle10 Thermal Zone,  !- Name
    0,                       !- Direction of Relative North {deg}
    0,                       !- X Origin {m}
    0,                       !- Y Origin {m}
    0;                       !- Z Origin {m}

Zone,
    L1-101-SalesAisle2 Thermal Zone,  !- Name
    0,                       !- Direction of Relative North {deg}
    0,                       !- X Origin {m}
    0,                       !- Y Origin {m}
    0;                       !- Z Origin {m}

Zone,
    L1-101-SalesAisle3 Thermal Zone,  !- Name
    0,                       !- Direction of Relative North {deg}
    0,                       !- X Origin {m}
    0,                       !- Y Origin {m}
    0;                       !- Z Origin {m}

Zone,
    L1-101-SalesAisle4 Thermal Zone,  !- Name
    0,                       !- Direction of Relative North {deg}
    0,                       !- X Origin {m}
    0,                       !- Y Origin {m}
    0;                       !- Z Origin {m}

Zone,
    L1-101-SalesAisle5 Thermal Zone,  !- Name
    0,                       !- Direction of Relative North {deg}
    0,                       !- X Origin {m}
    0,                       !- Y Origin {m}
    0;                       !- Z Origin {m}

Zone,
    L1-101-SalesAisle6 Thermal Zone,  !- Name
    0,                       !- Direction of Relative North {deg}
    0,                       !- X Origin {m}
    0,                       !- Y Origin {m}
    0;                       !- Z Origin {m}

Zone,
    L1-101-SalesAisle7 Thermal Zone,  !- Name
    0,                       !- Direction of Relative North {deg}
    0,                       !- X Origin {m}
    0,                       !- Y Origin {m}
    0;                       !- Z Origin {m}

Zone,
    L1-101-SalesAisle8 Thermal Zone,  !- Name
    0,                       !- Direction of Relative North {deg}
    0,                       !- X Origin {m}
    0,                       !- Y Origin {m}
    0;                       !- Z Origin {m}

Zone,
    L1-101-SalesAisle9 Thermal Zone,  !- Name
    0,                       !- Direction of Relative North {deg}
    0,                       !- X Origin {m}
    0,                       !- Y Origin {m}
    0;                       !- Z Origin {m}

Zone,
    L1-101-SalesAisleBulk Thermal Zone,  !- Name
    0,                       !- Direction of Relative North {deg}
    0,                       !- X Origin {m}
    0,                       !- Y Origin {m}
    0;                       !- Z Origin {m}

Zone,
    L1-101-SalesCirculation1 Thermal Zone,  !- Name
    0,                       !- Direction of Relative North {deg}
    0,                       !- X Origin {m}
    0,                       !- Y Origin {m}
    0;                       !- Z Origin {m}

Zone,
    L1-101-SalesCirculation10 Thermal Zone,  !- Name
    0,                       !- Direction of Relative North {deg}
    0,                       !- X Origin {m}
    0,                       !- Y Origin {m}
    0;                       !- Z Origin {m}

Zone,
    L1-101-SalesCirculation2 Thermal Zone,  !- Name
    0,                       !- Direction of Relative North {deg}
    0,                       !- X Origin {m}
    0,                       !- Y Origin {m}
    0;                       !- Z Origin {m}

Zone,
    L1-101-SalesCirculation3 Thermal Zone,  !- Name
    0,                       !- Direction of Relative North {deg}
    0,                       !- X Origin {m}
    0,                       !- Y Origin {m}
    0;                       !- Z Origin {m}

Zone,
    L1-101-SalesCirculation4 Thermal Zone,  !- Name
    0,                       !- Direction of Relative North {deg}
    0,                       !- X Origin {m}
    0,                       !- Y Origin {m}
    0;                       !- Z Origin {m}

Zone,
    L1-101-SalesCirculation5 Thermal Zone,  !- Name
    0,                       !- Direction of Relative North {deg}
    0,                       !- X Origin {m}
    0,                       !- Y Origin {m}
    0;                       !- Z Origin {m}

Zone,
    L1-101-SalesCirculation6 Thermal Zone,  !- Name
    0,                       !- Direction of Relative North {deg}
    0,                       !- X Origin {m}
    0,                       !- Y Origin {m}
    0;                       !- Z Origin {m}

Zone,
    L1-101-SalesCirculation7 Thermal Zone,  !- Name
    0,                       !- Direction of Relative North {deg}
    0,                       !- X Origin {m}
    0,                       !- Y Origin {m}
    0;                       !- Z Origin {m}

Zone,
    L1-101-SalesCirculation8 Thermal Zone,  !- Name
    0,                       !- Direction of Relative North {deg}
    0,                       !- X Origin {m}
    0,                       !- Y Origin {m}
    0;                       !- Z Origin {m}

Zone,
    L1-101-SalesCirculation9 Thermal Zone,  !- Name
    0,                       !- Direction of Relative North {deg}
    0,                       !- X Origin {m}
    0,                       !- Y Origin {m}
    0;                       !- Z Origin {m}

Zone,
    L1-101-SalesCirculationMeatSeafood Thermal Zone,  !- Name
    0,                       !- Direction of Relative North {deg}
    0,                       !- X Origin {m}
    0,                       !- Y Origin {m}
    0;                       !- Z Origin {m}

Zone,
    L1-101-SalesRefrigerationAisle1 Thermal Zone,  !- Name
    0,                       !- Direction of Relative North {deg}
    0,                       !- X Origin {m}
    0,                       !- Y Origin {m}
    0;                       !- Z Origin {m}

Zone,
    L1-101-SalesRefrigerationAisle2 Thermal Zone,  !- Name
    0,                       !- Direction of Relative North {deg}
    0,                       !- X Origin {m}
    0,                       !- Y Origin {m}
    0;                       !- Z Origin {m}

Zone,
    L1-101-SalesRefrigerationAisle3 Thermal Zone,  !- Name
    0,                       !- Direction of Relative North {deg}
    0,                       !- X Origin {m}
    0,                       !- Y Origin {m}
    0;                       !- Z Origin {m}

Zone,
    L1-101-SalesRefrigerationAisle4 Thermal Zone,  !- Name
    0,                       !- Direction of Relative North {deg}
    0,                       !- X Origin {m}
    0,                       !- Y Origin {m}
    0;                       !- Z Origin {m}

Zone,
    L1-101-SalesRefrigerationAisle5 Thermal Zone,  !- Name
    0,                       !- Direction of Relative North {deg}
    0,                       !- X Origin {m}
    0,                       !- Y Origin {m}
    0;                       !- Z Origin {m}

Zone,
    L1-101-SalesRefrigerationAisle6 Thermal Zone,  !- Name
    0,                       !- Direction of Relative North {deg}
    0,                       !- X Origin {m}
    0,                       !- Y Origin {m}
    0;                       !- Z Origin {m}

Zone,
    L1-101-SalesRefrigerationAisle7 Thermal Zone,  !- Name
    0,                       !- Direction of Relative North {deg}
    0,                       !- X Origin {m}
    0,                       !- Y Origin {m}
    0;                       !- Z Origin {m}

Zone,
    L1-101-SalesRefrigerationEndcap1 Thermal Zone,  !- Name
    0,                       !- Direction of Relative North {deg}
    0,                       !- X Origin {m}
    0,                       !- Y Origin {m}
    0;                       !- Z Origin {m}

Zone,
    L1-101-SalesRefrigerationEndcap2 Thermal Zone,  !- Name
    0,                       !- Direction of Relative North {deg}
    0,                       !- X Origin {m}
    0,                       !- Y Origin {m}
    0;                       !- Z Origin {m}

Zone,
    L1-101-SalesRefrigerationEndcap3 Thermal Zone,  !- Name
    0,                       !- Direction of Relative North {deg}
    0,                       !- X Origin {m}
    0,                       !- Y Origin {m}
    0;                       !- Z Origin {m}

Zone,
    L1-101-SalesRefrigerationReachInBeer Thermal Zone,  !- Name
    0,                       !- Direction of Relative North {deg}
    0,                       !- X Origin {m}
    0,                       !- Y Origin {m}
    0;                       !- Z Origin {m}

Zone,
    L1-101-SalesRefrigerationReachInBeverages Thermal Zone,  !- Name
    0,                       !- Direction of Relative North {deg}
    0,                       !- X Origin {m}
    0,                       !- Y Origin {m}
    0;                       !- Z Origin {m}

Zone,
    L1-101-SalesRefrigerationReachInChees Thermal Zone,  !- Name
    0,                       !- Direction of Relative North {deg}
    0,                       !- X Origin {m}
    0,                       !- Y Origin {m}
    0;                       !- Z Origin {m}

Zone,
    L1-101-SalesRefrigerationReachInDairy1 Thermal Zone,  !- Name
    0,                       !- Direction of Relative North {deg}
    0,                       !- X Origin {m}
    0,                       !- Y Origin {m}
    0;                       !- Z Origin {m}

Zone,
    L1-101-SalesRefrigerationReachInDairy2 Thermal Zone,  !- Name
    0,                       !- Direction of Relative North {deg}
    0,                       !- X Origin {m}
    0,                       !- Y Origin {m}
    0;                       !- Z Origin {m}

Zone,
    L1-101-SalesRefrigerationReachInDairy3 Thermal Zone,  !- Name
    0,                       !- Direction of Relative North {deg}
    0,                       !- X Origin {m}
    0,                       !- Y Origin {m}
    0;                       !- Z Origin {m}

Zone,
    L1-101-SalesRefrigerationReachInMeatSubstitutes Thermal Zone,  !- Name
    0,                       !- Direction of Relative North {deg}
    0,                       !- X Origin {m}
    0,                       !- Y Origin {m}
    0;                       !- Z Origin {m}

Zone,
    L1-101-SalesRefrigerationReachInPrepared Thermal Zone,  !- Name
    0,                       !- Direction of Relative North {deg}
    0,                       !- X Origin {m}
    0,                       !- Y Origin {m}
    0;                       !- Z Origin {m}

Zone,
    L1-101-SalesWine Thermal Zone,  !- Name
    0,                       !- Direction of Relative North {deg}
    0,                       !- X Origin {m}
    0,                       !- Y Origin {m}
    0;                       !- Z Origin {m}

Zone,
    L1-102-Checkout1 Thermal Zone,  !- Name
    0,                       !- Direction of Relative North {deg}
    0,                       !- X Origin {m}
    0,                       !- Y Origin {m}
    0;                       !- Z Origin {m}

Zone,
    L1-102-Checkout2 Thermal Zone,  !- Name
    0,                       !- Direction of Relative North {deg}
    0,                       !- X Origin {m}
    0,                       !- Y Origin {m}
    0;                       !- Z Origin {m}

Zone,
    L1-102-Checkout3 Thermal Zone,  !- Name
    0,                       !- Direction of Relative North {deg}
    0,                       !- X Origin {m}
    0,                       !- Y Origin {m}
    0;                       !- Z Origin {m}

Zone,
    L1-102-Checkout4 Thermal Zone,  !- Name
    0,                       !- Direction of Relative North {deg}
    0,                       !- X Origin {m}
    0,                       !- Y Origin {m}
    0;                       !- Z Origin {m}

Zone,
    L1-102-CheckoutBagging Thermal Zone,  !- Name
    0,                       !- Direction of Relative North {deg}
    0,                       !- X Origin {m}
    0,                       !- Y Origin {m}
    0;                       !- Z Origin {m}

Zone,
    L1-102-Exit Thermal Zone,!- Name
    0,                       !- Direction of Relative North {deg}
    0,                       !- X Origin {m}
    0,                       !- Y Origin {m}
    0;                       !- Z Origin {m}

Zone,
    L1-102-ReceivingOffice Thermal Zone,  !- Name
    0,                       !- Direction of Relative North {deg}
    0,                       !- X Origin {m}
    0,                       !- Y Origin {m}
    0;                       !- Z Origin {m}

Zone,
    L1-102-SelfCheckout Thermal Zone,  !- Name
    0,                       !- Direction of Relative North {deg}
    0,                       !- X Origin {m}
    0,                       !- Y Origin {m}
    0;                       !- Z Origin {m}

Zone,
    L1-103-Floral Thermal Zone,  !- Name
    0,                       !- Direction of Relative North {deg}
    0,                       !- X Origin {m}
    0,                       !- Y Origin {m}
    0;                       !- Z Origin {m}

Zone,
    L1-104-Produce Thermal Zone,  !- Name
    0,                       !- Direction of Relative North {deg}
    0,                       !- X Origin {m}
    0,                       !- Y Origin {m}
    0;                       !- Z Origin {m}

Zone,
    L1-104-ProduceCirculation Thermal Zone,  !- Name
    0,                       !- Direction of Relative North {deg}
    0,                       !- X Origin {m}
    0,                       !- Y Origin {m}
    0;                       !- Z Origin {m}

Zone,
    L1-104-ProduceCoolers1 Thermal Zone,  !- Name
    0,                       !- Direction of Relative North {deg}
    0,                       !- X Origin {m}
    0,                       !- Y Origin {m}
    0;                       !- Z Origin {m}

Zone,
    L1-104-ProduceCoolers2 Thermal Zone,  !- Name
    0,                       !- Direction of Relative North {deg}
    0,                       !- X Origin {m}
    0,                       !- Y Origin {m}
    0;                       !- Z Origin {m}

Zone,
    L1-104-ProduceCoolers3 Thermal Zone,  !- Name
    0,                       !- Direction of Relative North {deg}
    0,                       !- X Origin {m}
    0,                       !- Y Origin {m}
    0;                       !- Z Origin {m}

Zone,
    L1-106-Receiving Thermal Zone,  !- Name
    0,                       !- Direction of Relative North {deg}
    0,                       !- X Origin {m}
    0,                       !- Y Origin {m}
    0;                       !- Z Origin {m}

Zone,
    L1-106-ReceivingTransformers2 Thermal Zone,  !- Name
    0,                       !- Direction of Relative North {deg}
    0,                       !- X Origin {m}
    0,                       !- Y Origin {m}
    0;                       !- Z Origin {m}

Zone,
    L1-108-ProduceCooler Thermal Zone,  !- Name
    0,                       !- Direction of Relative North {deg}
    0,                       !- X Origin {m}
    0,                       !- Y Origin {m}
    0;                       !- Z Origin {m}

Zone,
    L1-109-Corridor Thermal Zone,  !- Name
    0,                       !- Direction of Relative North {deg}
    0,                       !- X Origin {m}
    0,                       !- Y Origin {m}
    0;                       !- Z Origin {m}

Zone,
    L1-110-ProducePrep Thermal Zone,  !- Name
    0,                       !- Direction of Relative North {deg}
    0,                       !- X Origin {m}
    0,                       !- Y Origin {m}
    0;                       !- Z Origin {m}

Zone,
    L1-111-GroceryFreezer Thermal Zone,  !- Name
    0,                       !- Direction of Relative North {deg}
    0,                       !- X Origin {m}
    0,                       !- Y Origin {m}
    0;                       !- Z Origin {m}

Zone,
    L1-112-DairyCooler Thermal Zone,  !- Name
    0,                       !- Direction of Relative North {deg}
    0,                       !- X Origin {m}
    0,                       !- Y Origin {m}
    0;                       !- Z Origin {m}

Zone,
    L1-113-BeerCage Thermal Zone,  !- Name
    0,                       !- Direction of Relative North {deg}
    0,                       !- X Origin {m}
    0,                       !- Y Origin {m}
    0;                       !- Z Origin {m}

Zone,
    L1-114-Backstock Thermal Zone,  !- Name
    0,                       !- Direction of Relative North {deg}
    0,                       !- X Origin {m}
    0,                       !- Y Origin {m}
    0;                       !- Z Origin {m}

Zone,
    L1-115-MeatSeafoodCooler Thermal Zone,  !- Name
    0,                       !- Direction of Relative North {deg}
    0,                       !- X Origin {m}
    0,                       !- Y Origin {m}
    0;                       !- Z Origin {m}

Zone,
    L1-116-MeatService Thermal Zone,  !- Name
    0,                       !- Direction of Relative North {deg}
    0,                       !- X Origin {m}
    0,                       !- Y Origin {m}
    0;                       !- Z Origin {m}

Zone,
    L1-117-SeafoodSurface Thermal Zone,  !- Name
    0,                       !- Direction of Relative North {deg}
    0,                       !- X Origin {m}
    0,                       !- Y Origin {m}
    0;                       !- Z Origin {m}

Zone,
    L1-118-PreparedFoodsPrep Thermal Zone,  !- Name
    0,                       !- Direction of Relative North {deg}
    0,                       !- X Origin {m}
    0,                       !- Y Origin {m}
    0;                       !- Z Origin {m}

Zone,
    L1-119-DeliCooler Thermal Zone,  !- Name
    0,                       !- Direction of Relative North {deg}
    0,                       !- X Origin {m}
    0,                       !- Y Origin {m}
    0;                       !- Z Origin {m}

Zone,
    L1-120-Women Thermal Zone,  !- Name
    0,                       !- Direction of Relative North {deg}
    0,                       !- X Origin {m}
    0,                       !- Y Origin {m}
    0;                       !- Z Origin {m}

Zone,
    L1-121-Men Thermal Zone, !- Name
    0,                       !- Direction of Relative North {deg}
    0,                       !- X Origin {m}
    0,                       !- Y Origin {m}
    0;                       !- Z Origin {m}

Zone,
    L1-122-Corridor Thermal Zone,  !- Name
    0,                       !- Direction of Relative North {deg}
    0,                       !- X Origin {m}
    0,                       !- Y Origin {m}
    0;                       !- Z Origin {m}

Zone,
    L1-123-Stairs Thermal Zone,  !- Name
    0,                       !- Direction of Relative North {deg}
    0,                       !- X Origin {m}
    0,                       !- Y Origin {m}
    0;                       !- Z Origin {m}

Zone,
    L1-124-SpecialtyService Thermal Zone,  !- Name
    0,                       !- Direction of Relative North {deg}
    0,                       !- X Origin {m}
    0,                       !- Y Origin {m}
    0;                       !- Z Origin {m}

Zone,
    L1-125-PreparedFoods1 Thermal Zone,  !- Name
    0,                       !- Direction of Relative North {deg}
    0,                       !- X Origin {m}
    0,                       !- Y Origin {m}
    0;                       !- Z Origin {m}

Zone,
    L1-125-PreparedFoods2 Thermal Zone,  !- Name
    0,                       !- Direction of Relative North {deg}
    0,                       !- X Origin {m}
    0,                       !- Y Origin {m}
    0;                       !- Z Origin {m}

Zone,
    L1-126-BakeryService Thermal Zone,  !- Name
    0,                       !- Direction of Relative North {deg}
    0,                       !- X Origin {m}
    0,                       !- Y Origin {m}
    0;                       !- Z Origin {m}

Zone,
    L1-127-Coffee Thermal Zone,  !- Name
    0,                       !- Direction of Relative North {deg}
    0,                       !- X Origin {m}
    0,                       !- Y Origin {m}
    0;                       !- Z Origin {m}

Zone,
    L1-Shaft Thermal Zone,   !- Name
    0,                       !- Direction of Relative North {deg}
    0,                       !- X Origin {m}
    0,                       !- Y Origin {m}
    0;                       !- Z Origin {m}

Zone,
    L1-Stairs Thermal Zone,  !- Name
    0,                       !- Direction of Relative North {deg}
    0,                       !- X Origin {m}
    0,                       !- Y Origin {m}
    0;                       !- Z Origin {m}

Zone,
    L1S1-Backstock Thermal Zone,  !- Name
    0,                       !- Direction of Relative North {deg}
    0,                       !- X Origin {m}
    0,                       !- Y Origin {m}
    0;                       !- Z Origin {m}

Zone,
    L1S1-BeerCage Thermal Zone,  !- Name
    0,                       !- Direction of Relative North {deg}
    0,                       !- X Origin {m}
    0,                       !- Y Origin {m}
    0;                       !- Z Origin {m}

Zone,
    L1S1-Checkout Thermal Zone,  !- Name
    0,                       !- Direction of Relative North {deg}
    0,                       !- X Origin {m}
    0,                       !- Y Origin {m}
    0;                       !- Z Origin {m}

Zone,
    L1S1-Coffee Thermal Zone,!- Name
    0,                       !- Direction of Relative North {deg}
    0,                       !- X Origin {m}
    0,                       !- Y Origin {m}
    0;                       !- Z Origin {m}

Zone,
    L1S1-Corridor Thermal Zone,  !- Name
    0,                       !- Direction of Relative North {deg}
    0,                       !- X Origin {m}
    0,                       !- Y Origin {m}
    0;                       !- Z Origin {m}

Zone,
    L1S1-DairyCooler Thermal Zone,  !- Name
    0,                       !- Direction of Relative North {deg}
    0,                       !- X Origin {m}
    0,                       !- Y Origin {m}
    0;                       !- Z Origin {m}

Zone,
    L1S1-DeliCooler Thermal Zone,  !- Name
    0,                       !- Direction of Relative North {deg}
    0,                       !- X Origin {m}
    0,                       !- Y Origin {m}
    0;                       !- Z Origin {m}

Zone,
    L1S1-Loading Thermal Zone,  !- Name
    0,                       !- Direction of Relative North {deg}
    0,                       !- X Origin {m}
    0,                       !- Y Origin {m}
    0;                       !- Z Origin {m}

Zone,
    L1S1-MeatSeafoodCooler Thermal Zone,  !- Name
    0,                       !- Direction of Relative North {deg}
    0,                       !- X Origin {m}
    0,                       !- Y Origin {m}
    0;                       !- Z Origin {m}

Zone,
    L1S1-Men Thermal Zone,   !- Name
    0,                       !- Direction of Relative North {deg}
    0,                       !- X Origin {m}
    0,                       !- Y Origin {m}
    0;                       !- Z Origin {m}

Zone,
    L1S1-PreparedFoods Thermal Zone,  !- Name
    0,                       !- Direction of Relative North {deg}
    0,                       !- X Origin {m}
    0,                       !- Y Origin {m}
    0;                       !- Z Origin {m}

Zone,
    L1S1-PreparedFoodsPrep Thermal Zone,  !- Name
    0,                       !- Direction of Relative North {deg}
    0,                       !- X Origin {m}
    0,                       !- Y Origin {m}
    0;                       !- Z Origin {m}

Zone,
    L1S1-Produce Thermal Zone,  !- Name
    0,                       !- Direction of Relative North {deg}
    0,                       !- X Origin {m}
    0,                       !- Y Origin {m}
    0;                       !- Z Origin {m}

Zone,
    L1S1-SalesAisle1 Thermal Zone,  !- Name
    0,                       !- Direction of Relative North {deg}
    0,                       !- X Origin {m}
    0,                       !- Y Origin {m}
    0;                       !- Z Origin {m}

Zone,
    L1S1-SalesAisle4 Thermal Zone,  !- Name
    0,                       !- Direction of Relative North {deg}
    0,                       !- X Origin {m}
    0,                       !- Y Origin {m}
    0;                       !- Z Origin {m}

Zone,
    L1S1-SalesNorth Thermal Zone,  !- Name
    0,                       !- Direction of Relative North {deg}
    0,                       !- X Origin {m}
    0,                       !- Y Origin {m}
    0;                       !- Z Origin {m}

Zone,
    L1S1-SalesRefrigerationAisle6 Thermal Zone,  !- Name
    0,                       !- Direction of Relative North {deg}
    0,                       !- X Origin {m}
    0,                       !- Y Origin {m}
    0;                       !- Z Origin {m}

Zone,
    L1S1-SalesRefrigerationReachInDairy2 Thermal Zone,  !- Name
    0,                       !- Direction of Relative North {deg}
    0,                       !- X Origin {m}
    0,                       !- Y Origin {m}
    0;                       !- Z Origin {m}

Zone,
    L1S1-SalesRefrigerationReachPrepared Thermal Zone,  !- Name
    0,                       !- Direction of Relative North {deg}
    0,                       !- X Origin {m}
    0,                       !- Y Origin {m}
    0;                       !- Z Origin {m}

Zone,
    L1S1-SalesSouth Thermal Zone,  !- Name
    0,                       !- Direction of Relative North {deg}
    0,                       !- X Origin {m}
    0,                       !- Y Origin {m}
    0;                       !- Z Origin {m}

Zone,
    L1S1-SeafoodSurface Thermal Zone,  !- Name
    0,                       !- Direction of Relative North {deg}
    0,                       !- X Origin {m}
    0,                       !- Y Origin {m}
    0;                       !- Z Origin {m}

Zone,
    L1S1-Shaft Thermal Zone, !- Name
    0,                       !- Direction of Relative North {deg}
    0,                       !- X Origin {m}
    0,                       !- Y Origin {m}
    0;                       !- Z Origin {m}

Zone,
    L1S1-SpecialtyService Thermal Zone,  !- Name
    0,                       !- Direction of Relative North {deg}
    0,                       !- X Origin {m}
    0,                       !- Y Origin {m}
    0;                       !- Z Origin {m}

Zone,
    L1S1-Stairs Thermal Zone,!- Name
    0,                       !- Direction of Relative North {deg}
    0,                       !- X Origin {m}
    0,                       !- Y Origin {m}
    0;                       !- Z Origin {m}

Zone,
    L1S1-Women Thermal Zone, !- Name
    0,                       !- Direction of Relative North {deg}
    0,                       !- X Origin {m}
    0,                       !- Y Origin {m}
    0;                       !- Z Origin {m}

Zone,
    L1S2-AislesEast Thermal Zone,  !- Name
    0,                       !- Direction of Relative North {deg}
    0,                       !- X Origin {m}
    0,                       !- Y Origin {m}
    0;                       !- Z Origin {m}

Zone,
    L1S2-AislesWest Thermal Zone,  !- Name
    0,                       !- Direction of Relative North {deg}
    0,                       !- X Origin {m}
    0,                       !- Y Origin {m}
    0;                       !- Z Origin {m}

Zone,
    L1S2-Bakery Thermal Zone,!- Name
    0,                       !- Direction of Relative North {deg}
    0,                       !- X Origin {m}
    0,                       !- Y Origin {m}
    0;                       !- Z Origin {m}

Zone,
    L1S2-Checkout Thermal Zone,  !- Name
    0,                       !- Direction of Relative North {deg}
    0,                       !- X Origin {m}
    0,                       !- Y Origin {m}
    0;                       !- Z Origin {m}

Zone,
    L1S2-LoadingBOH Thermal Zone,  !- Name
    0,                       !- Direction of Relative North {deg}
    0,                       !- X Origin {m}
    0,                       !- Y Origin {m}
    0;                       !- Z Origin {m}

Zone,
    L1S2-ReachInPrepared Thermal Zone,  !- Name
    0,                       !- Direction of Relative North {deg}
    0,                       !- X Origin {m}
    0,                       !- Y Origin {m}
    0;                       !- Z Origin {m}

Zone,
    L1S2-Shaft Thermal Zone, !- Name
    0,                       !- Direction of Relative North {deg}
    0,                       !- X Origin {m}
    0,                       !- Y Origin {m}
    0;                       !- Z Origin {m}

Zone,
    L1S2-Shaft2 Thermal Zone,!- Name
    0,                       !- Direction of Relative North {deg}
    0,                       !- X Origin {m}
    0,                       !- Y Origin {m}
    0;                       !- Z Origin {m}

Zone,
    L2-201-Corridor Thermal Zone,  !- Name
    0,                       !- Direction of Relative North {deg}
    0,                       !- X Origin {m}
    0,                       !- Y Origin {m}
    0;                       !- Z Origin {m}

Zone,
    L2-201-ExgStorage Thermal Zone,  !- Name
    0,                       !- Direction of Relative North {deg}
    0,                       !- X Origin {m}
    0,                       !- Y Origin {m}
    0;                       !- Z Origin {m}

Zone,
    L2-201-Stairs1 Thermal Zone,  !- Name