!-Generator IDFEditor 1.48
!-Option SortedOrder

!-NOTE: All comments with '!-' are ignored by the IDFEditor and are generated automatically.
!-      Use '!' comments if they need to be retained when using the IDFEditor.


!-   ===========  ALL OBJECTS IN CLASS: VERSION ===========

! RefBldgSuperMarketNew2004_Chicago.idf
!
! This example file is based on Version 1.3_5.0 and was transitioned to Version 6.0 using the transition utility
!
! DOE Commercial Reference Building
! Supermarket, new construction 90.1-2004
! Version 1.3_5.0
! EnergyPlus Version 6.0
! ASHRAE Standards 90.1-2004 and 62-1999
!
! Description:  Single story, six zone building.
! Form:         Area = 4,181 m2 (45,002 ft2); Number of Stories = 1; Shape = rectangle, Aspect ratio = 1.5
! Envelope:     Envelope thermal properties vary with climate according to ASHRAE Standard 90.1-2004.
!               Opaque constructions: mass walls; built-up flat roof (insulation above deck); slab-on-grade floor
!               Windows: window-to-wall ratio = 10.9%
!               Infiltration = 0.4 cfm/ft2 above grade wall area at 0.3 in wc (75 Pa) adjusted to 0.016 in wc (4 Pa).
!                              50% of full value when ventilation system on.
! HVAC:         PSZ-AC, gas furnace
!               Economizers per 90.1-2004
! Exhaust:      Deli exhaust 1,416 L/s (3,000 cfm), 85% of exhaust make-up air from sales
!               Deli exhaust fan modeled as exterior load to avoid getting double make-up air
!               Bakery exhaust 354 L/s (750 cfm)
!
! Int. gains:   W/m2 (W/ft2)   lights              elec plug        gas plug
!               Office         11.8 (1.1)          8.07 (0.75)      0
!               DryStorage     8.6 (0.8)           8.07 (0.75)      0
!               Deli           18.3 (1.7)          53.8 (5.0)       26.9(2.5)
!               Sales          18.3 (1.7)          5.38 (0.5)       0
!               Produce        18.3 (1.7)          5.38 (0.5)       0
!               Bakery         18.3 (1.7)          53.8 (5.0)       26.9(2.5)
!
!               Refrigeration   Case Length, Zone Breakdown [m]
!                                     Office  Bakery  Sales  Deli Produce
!               multideck meat cases    0       0     33.58   3     0
!               other multideck cases   0       0     49.25   0    30
!               reach-in cases          0       0     81.69   0     0
!               single-level open cases 0       0     39.01   0     0
!               meat walk in cooler     0       0     10.44   4.8   0
!               other walk in cooler    0     2.4     96.66   0     0
!               walk in freezer         0       0     38.10   0     0
!
! Detached Shading:               None
! Daylight:                       None
! Natural Ventilation:            None
! Zonal Equipment:                None
! Air Primary Loops:              PSZ-AC
! Plant Loops:                    SHWSys1
! System Equipment Autosize:      Yes
! Purchased Cooling:              None
! Purchased Heating:              None
! Coils:                          Coil:Cooling:DX:SingleSpeed; Coil:Cooling:DX:TwoSpeed; Coil:Heating:Fuel
! Pumps:                          None
! Boilers:                        None
! Chillers:                       None
!***** NOTICE *****
!***** The Reference Buildings were prepared as an account of work sponsored by an *****
!***** agency of the United States government. Neither the United States *****
!***** government nor any agency thereof, nor any of their employees, makes *****
!***** any warranty, express or implied, or assumes any legal liability or *****
!***** responsibility for the accuracy, completeness, or usefulness of any *****
!***** information, apparatus, product, or process disclosed, or represents *****
!***** that its use would not infringe privately owned rights. Reference *****
!***** herein to any specific commercial product, process, or service by *****
!***** trade name, trademark, manufacturer, or otherwise does not necessarily *****
!***** constitute or imply its endorsement, recommendation, or favoring by *****
!***** the United States government or any agency thereof. The views and *****
!***** opinions of authors expressed herein do not necessarily state or *****
!***** reflect those of the United States government or any agency thereof. *****
!***** Access to and use of the Reference Buildings imposes the following obligations *****
!***** on the user. The user agrees to credit DOE, NREL, PNNL, and LBNL in *****
!***** any publication(s) that that result from the use of Reference Buildings. *****
!***** However, the names of DOE/NREL/PNNL/LBNL may not be used in any *****
!***** advertising or publicity that implies endorsement or promotion of any *****
!***** products, services or commercial entities. *****
! Reference citation for the Commercial Reference Buildings:
! Deru, M.; Field, K.; Studer, D.; Benne, K.; Griffith, B.; Torcellini, P;
! Halverson, M.; Winiarski, D.; Liu, B.; Rosenberg, M.; Huang, J.;
! Yazdanian, M.; Crawley, D. (2010).
! U.S. Department of Energy Commercial Reference Building Models of the National Building Stock.
! Washington, DC: U.S. Department of Energy, Energy Efficiency and
! Renewable Energy, Office of Building Technologies.
! ***GENERAL SIMULATION PARAMETERS***
! Number of Zones: 6
Version,
    8.6;                     !- Version Identifier


!-   ===========  ALL OBJECTS IN CLASS: SIMULATIONCONTROL ===========

SimulationControl,
    No,                      !- Do Zone Sizing Calculation
    No,                      !- Do System Sizing Calculation
    No,                      !- Do Plant Sizing Calculation
    No,                      !- Run Simulation for Sizing Periods
    Yes;                     !- Run Simulation for Weather File Run Periods


!-   ===========  ALL OBJECTS IN CLASS: BUILDING ===========

Building,
    Ref Bldg SuperMarket New2004_v1.3_5.0,  !- Name
    0.0000,                  !- North Axis {deg}
    City,                    !- Terrain
    0.0400,                  !- Loads Convergence Tolerance Value
    0.2000,                  !- Temperature Convergence Tolerance Value {deltaC}
    FullInteriorAndExterior, !- Solar Distribution
    25,                      !- Maximum Number of Warmup Days
    6;                       !- Minimum Number of Warmup Days


!-   ===========  ALL OBJECTS IN CLASS: SHADOWCALCULATION ===========

ShadowCalculation,
    AverageOverDaysInFrequency,  !- Calculation Method
    7,                       !- Calculation Frequency
    15000;                   !- Maximum Figures in Shadow Overlap Calculations


!-   ===========  ALL OBJECTS IN CLASS: SURFACECONVECTIONALGORITHM:INSIDE ===========

! ***MISC SIMULATION PARAMETERS***
SurfaceConvectionAlgorithm:Inside,
    TARP;                    !- Algorithm


!-   ===========  ALL OBJECTS IN CLASS: SURFACECONVECTIONALGORITHM:OUTSIDE ===========

SurfaceConvectionAlgorithm:Outside,
    DOE-2;                   !- Algorithm


!-   ===========  ALL OBJECTS IN CLASS: HEATBALANCEALGORITHM ===========

HeatBalanceAlgorithm,
    ConductionTransferFunction,  !- Algorithm
    200.0000;                !- Surface Temperature Upper Limit {C}


!-   ===========  ALL OBJECTS IN CLASS: ZONEAIRHEATBALANCEALGORITHM ===========

ZoneAirHeatBalanceAlgorithm,
    AnalyticalSolution;      !- Algorithm


!-   ===========  ALL OBJECTS IN CLASS: TIMESTEP ===========

Timestep,
    4;                       !- Number of Timesteps per Hour


!-   ===========  ALL OBJECTS IN CLASS: CONVERGENCELIMITS ===========

ConvergenceLimits,
    2,                       !- Minimum System Timestep {minutes}
    25;                      !- Maximum HVAC Iterations


!-   ===========  ALL OBJECTS IN CLASS: SITE:LOCATION ===========

! WeatherFileName=USA_IL_Chicago-OHare_TMY2.epw
Site:Location,
    USA IL-CHICAGO-OHARE,    !- Name
    41.77,                   !- Latitude {deg}
    -87.75,                  !- Longitude {deg}
    -6.00,                   !- Time Zone {hr}
    190;                     !- Elevation {m}


!-   ===========  ALL OBJECTS IN CLASS: SIZINGPERIOD:DESIGNDAY ===========

! CHICAGO_IL_USA Annual Heating 99.6%, MaxDB=-20.6°C
SizingPeriod:DesignDay,
    CHICAGO Ann Htg 99.6% Condns DB,  !- Name
    1,                       !- Month
    21,                      !- Day of Month
    WinterDesignDay,         !- Day Type
    -20.6,                   !- Maximum Dry-Bulb Temperature {C}
    0.0,                     !- Daily Dry-Bulb Temperature Range {deltaC}
    ,                        !- Dry-Bulb Temperature Range Modifier Type
    ,                        !- Dry-Bulb Temperature Range Modifier Day Schedule Name
    Wetbulb,                 !- Humidity Condition Type
    -20.6,                   !- Wetbulb or DewPoint at Maximum Dry-Bulb {C}
    ,                        !- Humidity Condition Day Schedule Name
    ,                        !- Humidity Ratio at Maximum Dry-Bulb {kgWater/kgDryAir}
    ,                        !- Enthalpy at Maximum Dry-Bulb {J/kg}
    ,                        !- Daily Wet-Bulb Temperature Range {deltaC}
    99063.,                  !- Barometric Pressure {Pa}
    4.9,                     !- Wind Speed {m/s}
    270,                     !- Wind Direction {deg}
    No,                      !- Rain Indicator
    No,                      !- Snow Indicator
    No,                      !- Daylight Saving Time Indicator
    ASHRAEClearSky,          !- Solar Model Indicator
    ,                        !- Beam Solar Day Schedule Name
    ,                        !- Diffuse Solar Day Schedule Name
    ,                        !- ASHRAE Clear Sky Optical Depth for Beam Irradiance (taub) {dimensionless}
    ,                        !- ASHRAE Clear Sky Optical Depth for Diffuse Irradiance (taud) {dimensionless}
    0.00;                    !- Sky Clearness

! CHICAGO_IL_USA Annual Cooling (WB=>MDB) .4%, MDB=31.2°C WB=25.5°C
SizingPeriod:DesignDay,
    CHICAGO Ann Clg .4% Condns WB=>MDB,  !- Name
    7,                       !- Month
    21,                      !- Day of Month
    SummerDesignDay,         !- Day Type
    31.2,                    !- Maximum Dry-Bulb Temperature {C}
    10.7,                    !- Daily Dry-Bulb Temperature Range {deltaC}
    ,                        !- Dry-Bulb Temperature Range Modifier Type
    ,                        !- Dry-Bulb Temperature Range Modifier Day Schedule Name
    Wetbulb,                 !- Humidity Condition Type
    25.5,                    !- Wetbulb or DewPoint at Maximum Dry-Bulb {C}
    ,                        !- Humidity Condition Day Schedule Name
    ,                        !- Humidity Ratio at Maximum Dry-Bulb {kgWater/kgDryAir}
    ,                        !- Enthalpy at Maximum Dry-Bulb {J/kg}
    ,                        !- Daily Wet-Bulb Temperature Range {deltaC}
    99063.,                  !- Barometric Pressure {Pa}
    5.3,                     !- Wind Speed {m/s}
    230,                     !- Wind Direction {deg}
    No,                      !- Rain Indicator
    No,                      !- Snow Indicator
    No,                      !- Daylight Saving Time Indicator
    ASHRAEClearSky,          !- Solar Model Indicator
    ,                        !- Beam Solar Day Schedule Name
    ,                        !- Diffuse Solar Day Schedule Name
    ,                        !- ASHRAE Clear Sky Optical Depth for Beam Irradiance (taub) {dimensionless}
    ,                        !- ASHRAE Clear Sky Optical Depth for Diffuse Irradiance (taud) {dimensionless}
    1.00;                    !- Sky Clearness


!-   ===========  ALL OBJECTS IN CLASS: RUNPERIOD ===========

RunPeriod,
    ,                        !- Name
    1,                       !- Begin Month
    1,                       !- Begin Day of Month
    12,                      !- End Month
    31,                      !- End Day of Month
    Sunday,                  !- Day of Week for Start Day
    No,                      !- Use Weather File Holidays and Special Days
    No,                      !- Use Weather File Daylight Saving Period
    No,                      !- Apply Weekend Holiday Rule
    Yes,                     !- Use Weather File Rain Indicators
    Yes,                     !- Use Weather File Snow Indicators
    1.0000;                  !- Number of Times Runperiod to be Repeated


!-   ===========  ALL OBJECTS IN CLASS: RUNPERIODCONTROL:SPECIALDAYS ===========

RunPeriodControl:SpecialDays,
    New Years Day,           !- Name
    January 1,               !- Start Date
    1,                       !- Duration {days}
    Holiday;                 !- Special Day Type

RunPeriodControl:SpecialDays,
    Veterans Day,            !- Name
    November 11,             !- Start Date
    1,                       !- Duration {days}
    Holiday;                 !- Special Day Type

RunPeriodControl:SpecialDays,
    Christmas,               !- Name
    December 25,             !- Start Date
    1,                       !- Duration {days}
    Holiday;                 !- Special Day Type

RunPeriodControl:SpecialDays,
    Independence Day,        !- Name
    July 4,                  !- Start Date
    1,                       !- Duration {days}
    Holiday;                 !- Special Day Type

RunPeriodControl:SpecialDays,
    MLK Day,                 !- Name
    3rd Monday in January,   !- Start Date
    1,                       !- Duration {days}
    Holiday;                 !- Special Day Type

RunPeriodControl:SpecialDays,
    Presidents Day,          !- Name
    3rd Monday in February,  !- Start Date
    1,                       !- Duration {days}
    Holiday;                 !- Special Day Type

RunPeriodControl:SpecialDays,
    Memorial Day,            !- Name
    Last Monday in May,      !- Start Date
    1,                       !- Duration {days}
    Holiday;                 !- Special Day Type

RunPeriodControl:SpecialDays,
    Labor Day,               !- Name
    1st Monday in September, !- Start Date
    1,                       !- Duration {days}
    Holiday;                 !- Special Day Type

RunPeriodControl:SpecialDays,
    Columbus Day,            !- Name
    2nd Monday in October,   !- Start Date
    1,                       !- Duration {days}
    Holiday;                 !- Special Day Type

RunPeriodControl:SpecialDays,
    Thanksgiving,            !- Name
    4th Thursday in November,!- Start Date
    1,                       !- Duration {days}
    Holiday;                 !- Special Day Type


!-   ===========  ALL OBJECTS IN CLASS: RUNPERIODCONTROL:DAYLIGHTSAVINGTIME ===========

! ***HOLIDAYS & DAYLIGHT SAVINGS***
RunPeriodControl:DaylightSavingTime,
    2nd Sunday in March,     !- Start Date
    1st Sunday in November;  !- End Date


!-   ===========  ALL OBJECTS IN CLASS: SITE:GROUNDTEMPERATURE:BUILDINGSURFACE ===========

Site:GroundTemperature:BuildingSurface,
    19.527,                  !- January Ground Temperature {C}
    19.502,                  !- February Ground Temperature {C}
    19.536,                  !- March Ground Temperature {C}
    19.598,                  !- April Ground Temperature {C}
    20.002,                  !- May Ground Temperature {C}
    21.640,                  !- June Ground Temperature {C}
    22.225,                  !- July Ground Temperature {C}
    22.375,                  !- August Ground Temperature {C}
    21.449,                  !- September Ground Temperature {C}
    20.121,                  !- October Ground Temperature {C}
    19.802,                  !- November Ground Temperature {C}
    19.633;                  !- December Ground Temperature {C}


!-   ===========  ALL OBJECTS IN CLASS: SITE:WATERMAINSTEMPERATURE ===========

Site:WaterMainsTemperature,
    CORRELATION,             !- Calculation Method
    ,                        !- Temperature Schedule Name
    9.69,                    !- Annual Average Outdoor Air Temperature {C}
    28.10;                   !- Maximum Difference In Monthly Average Outdoor Air Temperatures {deltaC}


!-   ===========  ALL OBJECTS IN CLASS: SCHEDULETYPELIMITS ===========

! ***SCHEDULE TYPES***
ScheduleTypeLimits,
    Any Number;              !- Name

ScheduleTypeLimits,
    Fraction,                !- Name
    0.0,                     !- Lower Limit Value
    1.0,                     !- Upper Limit Value
    CONTINUOUS;              !- Numeric Type

ScheduleTypeLimits,
    Temperature,             !- Name
    -60,                     !- Lower Limit Value
    200,                     !- Upper Limit Value
    CONTINUOUS;              !- Numeric Type

ScheduleTypeLimits,
    On/Off,                  !- Name
    0,                       !- Lower Limit Value
    1,                       !- Upper Limit Value
    DISCRETE;                !- Numeric Type

ScheduleTypeLimits,
    Control Type,            !- Name
    0,                       !- Lower Limit Value
    4,                       !- Upper Limit Value
    DISCRETE;                !- Numeric Type

ScheduleTypeLimits,
    Humidity,                !- Name
    10,                      !- Lower Limit Value
    90,                      !- Upper Limit Value
    CONTINUOUS;              !- Numeric Type

ScheduleTypeLimits,
    Number;                  !- Name


!-   ===========  ALL OBJECTS IN CLASS: SCHEDULE:COMPACT ===========

! ***ALWAYS ON SCHEDULE***
Schedule:Compact,
    ALWAYS_ON,               !- Name
    On/Off,                  !- Schedule Type Limits Name
    Through: 12/31,          !- Field 1
    For: AllDays,            !- Field 2
    Until: 24:00,            !- Field 3
    1;                       !- Field 4

! ***INTERNAL GAINS SCHEDULES***
Schedule:Compact,
    Deli_Exhaust_SCH,        !- Name
    On/Off,                  !- Schedule Type Limits Name
    Through: 12/31,          !- Field 1
    For: WinterDesignDay SummerDesignDay,  !- Field 2
    Until: 24:00,            !- Field 3
    1.0,                     !- Field 4
    For: AllOtherDays,       !- Field 5
    Until: 06:00,            !- Field 6
    0.0,                     !- Field 7
    Until: 22:00,            !- Field 8
    1.0,                     !- Field 9
    Until: 24:00,            !- Field 10
    0.0;                     !- Field 11

Schedule:Compact,
    BLDG_EQUIP_SCH,          !- Name
    Fraction,                !- Schedule Type Limits Name
    Through: 12/31,          !- Field 1
    For: Weekdays,           !- Field 2
    Until: 06:00,            !- Field 3
    0.2,                     !- Field 4
    Until: 08:00,            !- Field 5
    0.4,                     !- Field 6
    Until: 09:00,            !- Field 7
    0.7,                     !- Field 8
    Until: 18:00,            !- Field 9
    0.9,                     !- Field 10
    Until: 20:00,            !- Field 11
    0.8,                     !- Field 12
    Until: 21:00,            !- Field 13
    0.7,                     !- Field 14
    Until: 22:00,            !- Field 15
    0.4,                     !- Field 16
    Until: 24:00,            !- Field 17
    0.2,                     !- Field 18
    For: Saturday,           !- Field 19
    Until: 06:00,            !- Field 20
    0.15,                    !- Field 21
    Until: 08:00,            !- Field 22
    0.3,                     !- Field 23
    Until: 09:00,            !- Field 24
    0.5,                     !- Field 25
    Until: 10:00,            !- Field 26
    0.8,                     !- Field 27
    Until: 18:00,            !- Field 28
    0.9,                     !- Field 29
    Until: 19:00,            !- Field 30
    0.7,                     !- Field 31
    Until: 21:00,            !- Field 32
    0.5,                     !- Field 33
    Until: 22:00,            !- Field 34
    0.3,                     !- Field 35
    Until: 24:00,            !- Field 36
    0.15,                    !- Field 37
    For: SummerDesignDay,    !- Field 38
    Until: 24:00,            !- Field 39
    1.0,                     !- Field 40
    For: WinterDesignDay,    !- Field 41
    Until: 24:00,            !- Field 42
    0.0,                     !- Field 43
    For: Sunday Holidays AllOtherDays,  !- Field 44
    Until: 06:00,            !- Field 45
    0.15,                    !- Field 46
    Until: 10:00,            !- Field 47
    0.3,                     !- Field 48
    Until: 12:00,            !- Field 49
    0.6,                     !- Field 50
    Until: 17:00,            !- Field 51
    0.8,                     !- Field 52
    Until: 18:00,            !- Field 53
    0.6,                     !- Field 54
    Until: 22:00,            !- Field 55
    0.4,                     !- Field 56
    Until: 24:00,            !- Field 57
    0.15;                    !- Field 58

Schedule:Compact,
    BLDG_LIGHT_SCH,          !- Name
    Fraction,                !- Schedule Type Limits Name
    Through: 12/31,          !- Field 1
    For: Weekdays,           !- Field 2
    Until: 06:00,            !- Field 3
    0.05,                    !- Field 4
    Until: 08:00,            !- Field 5
    0.2,                     !- Field 6
    Until: 09:00,            !- Field 7
    0.5,                     !- Field 8
    Until: 18:00,            !- Field 9
    0.9,                     !- Field 10
    Until: 20:00,            !- Field 11
    0.6,                     !- Field 12
    Until: 21:00,            !- Field 13
    0.5,                     !- Field 14
    Until: 22:00,            !- Field 15
    0.2,                     !- Field 16
    Until: 24:00,            !- Field 17
    0.05,                    !- Field 18
    For: Saturday,           !- Field 19
    Until: 06:00,            !- Field 20
    0.05,                    !- Field 21
    Until: 08:00,            !- Field 22
    0.1,                     !- Field 23
    Until: 09:00,            !- Field 24
    0.3,                     !- Field 25
    Until: 10:00,            !- Field 26
    0.6,                     !- Field 27
    Until: 18:00,            !- Field 28
    0.9,                     !- Field 29
    Until: 19:00,            !- Field 30
    0.5,                     !- Field 31
    Until: 21:00,            !- Field 32
    0.3,                     !- Field 33
    Until: 22:00,            !- Field 34
    0.1,                     !- Field 35
    Until: 24:00,            !- Field 36
    0.05,                    !- Field 37
    For: SummerDesignDay,    !- Field 38
    Until: 24:00,            !- Field 39
    1.0,                     !- Field 40
    For: WinterDesignDay,    !- Field 41
    Until: 24:00,            !- Field 42
    0.0,                     !- Field 43
    For: Sunday Holidays AllOtherDays,  !- Field 44
    Until: 06:00,            !- Field 45
    0.05,                    !- Field 46
    Until: 10:00,            !- Field 47
    0.1,                     !- Field 48
    Until: 12:00,            !- Field 49
    0.4,                     !- Field 50
    Until: 17:00,            !- Field 51
    0.6,                     !- Field 52
    Until: 18:00,            !- Field 53
    0.4,                     !- Field 54
    Until: 22:00,            !- Field 55
    0.2,                     !- Field 56
    Until: 24:00,            !- Field 57
    0.05;                    !- Field 58

Schedule:Compact,
    BLDG_OCC_SCH,            !- Name
    Fraction,                !- Schedule Type Limits Name
    Through: 12/31,          !- Field 1
    For: Weekdays,           !- Field 2
    Until: 06:00,            !- Field 3
    0.0,                     !- Field 4
    Until: 08:00,            !- Field 5
    0.1,                     !- Field 6
    Until: 09:00,            !- Field 7
    0.2,                     !- Field 8
    Until: 11:00,            !- Field 9
    0.5,                     !- Field 10
    Until: 15:00,            !- Field 11
    0.7,                     !- Field 12
    Until: 16:00,            !- Field 13
    0.8,                     !- Field 14
    Until: 17:00,            !- Field 15
    0.7,                     !- Field 16
    Until: 19:00,            !- Field 17
    0.5,                     !- Field 18
    Until: 22:00,            !- Field 19
    0.3,                     !- Field 20
    Until: 24:00,            !- Field 21
    0.0,                     !- Field 22
    For: SummerDesignDay,    !- Field 23
    Until: 24:00,            !- Field 24
    1.0,                     !- Field 25
    For: Saturday,           !- Field 26
    Until: 06:00,            !- Field 27
    0.0,                     !- Field 28
    Until: 08:00,            !- Field 29
    0.1,                     !- Field 30
    Until: 09:00,            !- Field 31
    0.2,                     !- Field 32
    Until: 10:00,            !- Field 33
    0.5,                     !- Field 34
    Until: 11:00,            !- Field 35
    0.6,                     !- Field 36
    Until: 17:00,            !- Field 37
    0.8,                     !- Field 38
    Until: 18:00,            !- Field 39
    0.6,                     !- Field 40
    Until: 21:00,            !- Field 41
    0.2,                     !- Field 42
    Until: 22:00,            !- Field 43
    0.1,                     !- Field 44
    Until: 24:00,            !- Field 45
    0.0,                     !- Field 46
    For: WinterDesignDay,    !- Field 47
    Until: 24:00,            !- Field 48
    0.0,                     !- Field 49
    For: Sunday Holidays AllOtherDays,  !- Field 50
    Until: 06:00,            !- Field 51
    0.0,                     !- Field 52
    Until: 10:00,            !- Field 53
    0.1,                     !- Field 54
    Until: 12:00,            !- Field 55
    0.2,                     !- Field 56
    Until: 17:00,            !- Field 57
    0.4,                     !- Field 58
    Until: 18:00,            !- Field 59
    0.2,                     !- Field 60
    Until: 22:00,            !- Field 61
    0.1,                     !- Field 62
    Until: 24:00,            !- Field 63
    0.0;                     !- Field 64

Schedule:Compact,
    INFIL_HALF_ON_SCH,       !- Name
    Fraction,                !- Schedule Type Limits Name
    Through: 12/31,          !- Field 1
    For: Weekdays SummerDesignDay,  !- Field 2
    Until: 06:00,            !- Field 3
    1.0,                     !- Field 4
    Until: 22:00,            !- Field 5
    0.5,                     !- Field 6
    Until: 24:00,            !- Field 7
    1.0,                     !- Field 8
    For: Saturday,           !- Field 9
    Until: 06:00,            !- Field 10
    1.0,                     !- Field 11
    Until: 22:00,            !- Field 12
    0.5,                     !- Field 13
    Until: 24:00,            !- Field 14
    1.0,                     !- Field 15
    For: WinterDesignDay,    !- Field 16
    Until: 24:00,            !- Field 17
    1.0,                     !- Field 18
    For: Sunday Holidays AllOtherDays,  !- Field 19
    Until: 08:00,            !- Field 20
    1.0,                     !- Field 21
    Until: 17:00,            !- Field 22
    0.5,                     !- Field 23
    Until: 24:00,            !- Field 24
    1.0;                     !- Field 25

Schedule:Compact,
    CLOTHING_SCH,            !- Name
    Any Number,              !- Schedule Type Limits Name
    Through: 04/30,          !- Field 1
    For: AllDays,            !- Field 2
    Until: 24:00,            !- Field 3
    1.0,                     !- Field 4
    Through: 09/30,          !- Field 5
    For: AllDays,            !- Field 6
    Until: 24:00,            !- Field 7
    0.5,                     !- Field 8
    Through: 12/31,          !- Field 9
    For: AllDays,            !- Field 10
    Until: 24:00,            !- Field 11
    1.0;                     !- Field 12

Schedule:Compact,
    WORK_EFF_SCH,            !- Name
    Fraction,                !- Schedule Type Limits Name
    Through: 12/31,          !- Field 1
    For: AllDays,            !- Field 2
    Until: 24:00,            !- Field 3
    0.0;                     !- Field 4

Schedule:Compact,
    ACTIVITY_SCH,            !- Name
    Any Number,              !- Schedule Type Limits Name
    Through: 12/31,          !- Field 1
    For: AllDays,            !- Field 2
    Until: 24:00,            !- Field 3
    120.;                    !- Field 4

Schedule:Compact,
    AIR_VELO_SCH,            !- Name
    Any Number,              !- Schedule Type Limits Name
    Through: 12/31,          !- Field 1
    For: AllDays,            !- Field 2
    Until: 24:00,            !- Field 3
    0.2;                     !- Field 4

! ***SCHEDULES***
Schedule:Compact,
    CLGSETP_SCH,             !- Name
    Temperature,             !- Schedule Type Limits Name
    Through: 12/31,          !- Field 1
    For WinterDesignDay,     !- Field 2
    Until: 24:00,            !- Field 3
    30.0,                    !- Field 4
    For: AllOtherDays,       !- Field 5
    Until: 6:00,             !- Field 6
    30.0,                    !- Field 7
    Until: 22:00,            !- Field 8
    24.0,                    !- Field 9
    Until: 24:00,            !- Field 10
    30.0;                    !- Field 11

Schedule:Compact,
    HTGSETP_SCH,             !- Name
    Temperature,             !- Schedule Type Limits Name
    Through: 12/31,          !- Field 1
    For SummerDesignDay,     !- Field 2
    Until: 24:00,            !- Field 3
    15.6,                    !- Field 4
    For: AllOtherDays,       !- Field 5
    Until:  6:00,            !- Field 6
    15.6,                    !- Field 7
    Until: 22:00,            !- Field 8
    21.,                     !- Field 9
    Until: 24:00,            !- Field 10
    15.6;                    !- Field 11

Schedule:Compact,
    HVACOperationSchd,       !- Name
    On/Off,                  !- Schedule Type Limits Name
    Through: 12/31,          !- Field 1
    For: AllDays,            !- Field 2
    Until: 06:00,            !- Field 3
    0.0,                     !- Field 4